24
/scratch/dz1061/gcn/chemGraph/data/deepchem/freesol/split/QM_opt/gjf/1.log	Energy: -220634.1701860
C          4.46804        0.26800        0.01313
C          3.16386       -0.53555       -0.01290
C          1.90879        0.34638        0.00993
C          0.59849       -0.45063       -0.01631
C         -0.65589        0.43263        0.00715
C         -1.96525       -0.36605       -0.02436
C         -3.21264        0.51839        0.01209
O         -4.42485       -0.22317       -0.07882
H          4.53787        0.93851       -0.85233
H          4.53417        0.88740        0.91619
H          5.34450       -0.38983       -0.00407
H          3.14308       -1.17104       -0.90974
H          3.13943       -1.22194        0.84556
H          1.92982        0.98287        0.90732
H          1.93368        1.03370       -0.84895
H          0.57412       -1.13809        0.84233
H          0.57726       -1.08611       -0.91389
H         -0.63511        1.06733        0.90562
H         -0.63012        1.12069       -0.85073
H         -1.99165       -1.05738        0.83298
H         -2.00841       -0.98928       -0.92733
H         -3.20104        1.15021        0.91667
H         -3.22114        1.19408       -0.85043
H         -4.46007       -0.81474        0.68898
