13
/scratch/dz1061/gcn/chemGraph/data/deepchem/freesol/split/QM_opt/gjf/10.log	Energy: -1806329.4523542
C         -1.76537        1.22293        0.00000
C         -0.37346        1.21642        0.00000
C          0.31203        0.00143        0.00000
C         -0.38017       -1.20630        0.00000
C         -1.77524       -1.19860        0.00000
C         -2.47147        0.01458        0.00000
O         -3.83611        0.08526        0.00000
Br         2.22608       -0.00548        0.00000
H         -2.31833        2.15672       -0.00000
H          0.17633        2.15137       -0.00000
H          0.16038       -2.14654       -0.00000
H         -2.31917       -2.14137        0.00000
H         -4.20103       -0.81327       -0.00000
