22
/scratch/dz1061/gcn/chemGraph/data/deepchem/freesol/split/QM_opt/gjf/101.log	Energy: -264545.4308234
C         -2.01301        1.31957        0.79429
C         -2.02904       -0.14200        0.32657
C         -3.43958       -0.56401       -0.10873
C         -1.01944       -0.39853       -0.82342
C          0.42561       -0.21333       -0.43125
C          1.15662       -1.24550        0.18161
N          2.42916       -1.11122        0.56105
C          2.98918        0.08120        0.32234
C          2.27905        1.11377       -0.28861
N          1.00303        0.97625       -0.66680
H         -1.01689        1.63472        1.11966
H         -2.70621        1.46512        1.63114
H         -2.32079        1.99075       -0.01748
H         -1.73168       -0.77697        1.17499
H         -3.47290       -1.62141       -0.39750
H         -3.77741        0.02861       -0.96867
H         -4.16207       -0.41386        0.70189
H         -1.16173       -1.42405       -1.18894
H         -1.24012        0.28067       -1.65524
H          0.69304       -2.21430        0.36404
H          4.02703        0.21156        0.62223
H          2.74801        2.07691       -0.48268
