6
/scratch/dz1061/gcn/chemGraph/data/deepchem/freesol/split/QM_opt/gjf/109.log	Energy: -626113.4549356
C          0.00000        1.75393       -0.00000
C          0.00000        0.42481        0.00000
Cl        -1.46669       -0.52010       -0.00000
Cl         1.46669       -0.52010       -0.00000
H          0.93303        2.30547       -0.00000
H         -0.93303        2.30547       -0.00000
