12
/scratch/dz1061/gcn/chemGraph/data/deepchem/freesol/split/QM_opt/gjf/117.log	Energy: -722536.8188513
C          2.39213        0.69774       -0.00000
C          2.39213       -0.69774       -0.00000
C          1.18574       -1.39428        0.00000
C         -0.02691       -0.70064        0.00000
C         -0.02691        0.70064        0.00000
C          1.18574        1.39428        0.00000
Cl        -1.51783        1.61377       -0.00000
Cl        -1.51783       -1.61377       -0.00000
H          3.32815        1.24819       -0.00000
H          3.32815       -1.24819       -0.00000
H          1.16919       -2.47899       -0.00000
H          1.16919        2.47899       -0.00000
