14
/scratch/dz1061/gcn/chemGraph/data/deepchem/freesol/split/QM_opt/gjf/119.log	Energy: -193082.0063051
C         -2.77368        0.44059       -0.00000
C         -1.58438       -0.52569       -0.00000
C         -0.25602        0.21404        0.00000
O          0.80183       -0.77577        0.00000
C          2.05436       -0.29658       -0.00000
O          2.37152        0.86775       -0.00000
H         -2.76390        1.08760       -0.88533
H         -2.76390        1.08760        0.88533
H         -3.72112       -0.10811       -0.00000
H         -1.62733       -1.17899       -0.88014
H         -1.62733       -1.17899        0.88014
H         -0.14247        0.85150        0.88381
H         -0.14247        0.85150       -0.88381
H          2.76009       -1.14208       -0.00000
