12
/scratch/dz1061/gcn/chemGraph/data/deepchem/freesol/split/QM_opt/gjf/124.log	Energy: -239364.5421869
C         -0.67153        1.26928        0.00000
C          0.67153        1.26928       -0.00000
C          1.44518       -0.00000        0.00000
O          2.67008        0.00000       -0.00000
C          0.67153       -1.26928       -0.00000
C         -0.67153       -1.26928        0.00000
C         -1.44518        0.00000        0.00001
O         -2.67008       -0.00000       -0.00000
H         -1.25963        2.18278       -0.00000
H          1.25963        2.18278       -0.00000
H          1.25963       -2.18278       -0.00000
H         -1.25963       -2.18278       -0.00000
