6
/scratch/dz1061/gcn/chemGraph/data/deepchem/freesol/split/QM_opt/gjf/127.log	Energy: -914510.7671269
C         -0.64491       -0.90568        0.00000
C          0.42722       -0.10784        0.00000
Cl         0.36383        1.62040       -0.00000
Cl         2.02503       -0.80259       -0.00000
Cl        -2.28048       -0.34347       -0.00000
H         -0.53624       -1.98277        0.00000
