9
/scratch/dz1061/gcn/chemGraph/data/deepchem/freesol/split/QM_opt/gjf/132.log	Energy: -362387.5739360
C          2.23204       -0.20564       -0.30830
C          1.14098       -0.11995        0.45359
C         -0.02679        0.74854        0.12388
Cl        -1.55332       -0.24214       -0.10911
H          3.07646       -0.82760       -0.02542
H          2.32369        0.34536       -1.24189
H          1.06808       -0.68936        1.37855
H         -0.26420        1.44541        0.93114
H          0.12495        1.30489       -0.80250
