20
/scratch/dz1061/gcn/chemGraph/data/deepchem/freesol/split/QM_opt/gjf/133.log	Energy: -266198.7687350
C         -3.64314        0.09268        0.00524
C         -2.13411        0.04501       -0.00352
C         -1.37050        1.21817       -0.00370
C          0.02325        1.16960       -0.00154
C          0.69293       -0.06130       -0.00011
C         -0.07034       -1.24088       -0.00125
C         -1.45740       -1.18658       -0.00346
C          2.18534       -0.17874        0.00106
O          2.72605       -1.27506        0.00162
C          3.02223        1.09153        0.00178
H         -4.01399        1.11565       -0.11082
H         -4.06567       -0.51407       -0.80459
H         -4.04646       -0.30367        0.94591
H         -1.87303        2.18252       -0.00606
H          0.58329        2.09990       -0.00247
H          0.45438       -2.19082       -0.00174
H         -2.03169       -2.11060       -0.00586
H          2.81032        1.70484       -0.88227
H          2.80740        1.70593        0.88434
H          4.07756        0.81377        0.00363
