19
/scratch/dz1061/gcn/chemGraph/data/deepchem/freesol/split/QM_opt/gjf/136.log	Energy: -229200.4908773
C          2.29607        1.05449        0.07667
C          1.45567       -0.21247       -0.01264
O          1.96214       -1.32929       -0.08267
N          0.09950       -0.04391       -0.01711
C         -0.63301        1.22444        0.06851
C         -2.07950        0.81996       -0.25982
C         -2.17050       -0.62135        0.27039
C         -0.79320       -1.21039       -0.06658
H          2.17718        1.67258       -0.82173
H          2.01697        1.67117        0.93903
H          3.34252        0.76026        0.16621
H         -0.56442        1.65534        1.07917
H         -0.23706        1.96561       -0.63430
H         -2.81302        1.49737        0.18769
H         -2.23013        0.83162       -1.34602
H         -2.32099       -0.61289        1.35688
H         -2.99071       -1.19187       -0.17519
H         -0.45389       -1.97431        0.63828
H         -0.77327       -1.66121       -1.06811
