24
/scratch/dz1061/gcn/chemGraph/data/deepchem/freesol/split/QM_opt/gjf/138.log	Energy: -244419.9353359
C          4.24655        0.00000       -0.81733
C          3.22111       -0.00000        0.32109
C          1.77027       -0.00000       -0.17646
C          0.73566       -0.00000        0.96654
C         -0.69570       -0.00000        0.47240
C         -1.36959        1.20263        0.21968
C         -2.67530        1.20589       -0.27279
C         -3.33326        0.00000       -0.52143
C         -2.67530       -1.20589       -0.27279
C         -1.36959       -1.20263        0.21968
H          5.27247        0.00000       -0.43165
H          4.13017        0.88465       -1.45537
H          4.13017       -0.88465       -1.45537
H          3.38464       -0.87821        0.96195
H          3.38464        0.87821        0.96195
H          1.59962       -0.87789       -0.81548
H          1.59962        0.87789       -0.81548
H          0.90657        0.87962        1.60170
H          0.90657       -0.87962        1.60170
H         -0.86557        2.14703        0.41574
H         -3.18044        2.15061       -0.45774
H         -4.35146        0.00000       -0.90143
H         -3.18044       -2.15061       -0.45774
H         -0.86557       -2.14703        0.41574
