15
/scratch/dz1061/gcn/chemGraph/data/deepchem/freesol/split/QM_opt/gjf/14.log	Energy: -216977.6396224
C          2.67293       -0.10368       -0.00002
O          1.38256       -0.73473        0.00001
C          0.32717        0.11249        0.00006
O          0.43875        1.32296        0.00001
C         -0.95997       -0.62889        0.00001
C         -2.12521        0.00430       -0.74595
C         -2.12526        0.00429        0.74591
H          2.79632        0.52080        0.88900
H          2.79626        0.52082       -0.88904
H          3.39710       -0.91887       -0.00005
H         -0.87826       -1.71020        0.00000
H         -2.79393       -0.66835       -1.27476
H         -1.91592        0.94360       -1.24829
H         -2.79400       -0.66837        1.27468
H         -1.91599        0.94358        1.24828
