22
/scratch/dz1061/gcn/chemGraph/data/deepchem/freesol/split/QM_opt/gjf/141.log	Energy: -2691533.8865988
C         -1.17180        0.69706       -0.00002
C         -1.17180       -0.69706       -0.00002
C         -2.37491       -1.40332       -0.00001
C         -3.59384       -0.70210        0.00000
C         -3.59384        0.70210        0.00000
C         -2.37491        1.40332       -0.00001
Cl        -2.31662        3.13543       -0.00000
Cl        -5.08931        1.58012        0.00002
Cl        -5.08931       -1.58012        0.00002
Cl        -2.31662       -3.13543       -0.00000
O          0.00000       -1.41270       -0.00002
C          1.17180       -0.69706       -0.00001
C          1.17180        0.69706       -0.00001
C          2.37491        1.40332       -0.00000
C          3.59384        0.70210        0.00001
C          3.59384       -0.70210        0.00001
C          2.37491       -1.40332       -0.00000
Cl         2.31662       -3.13543       -0.00001
Cl         5.08931       -1.58012        0.00001
Cl         5.08931        1.58012        0.00001
Cl         2.31662        3.13543       -0.00000
O          0.00000        1.41270       -0.00002
