22
/scratch/dz1061/gcn/chemGraph/data/deepchem/freesol/split/QM_opt/gjf/142.log	Energy: -3174691.7036296
C         -0.74704        0.00003       -0.00005
C         -1.46267        0.85314        0.85269
C         -2.86482        0.86088        0.86045
C         -3.56582        0.00005       -0.00001
C         -2.86486       -0.86079       -0.86049
C         -1.46271       -0.85307       -0.85277
Cl        -0.58194       -1.91487       -1.91404
Cl        -3.72902       -1.92477       -1.92396
Cl        -5.29996        0.00002        0.00005
Cl        -3.72891        1.92483        1.92401
Cl        -0.58184        1.91482        1.91403
C          0.74704       -0.00001       -0.00005
C          1.46272        0.85273       -0.85313
C          2.86487        0.86045       -0.86083
C          3.56582       -0.00003        0.00002
C          2.86481       -0.86050        0.86083
C          1.46267       -0.85275        0.85306
Cl         0.58182       -1.91403        1.91479
Cl         3.72890       -1.92403        1.92481
Cl         5.29996       -0.00004        0.00006
Cl         3.72903        1.92399       -1.92475
Cl         0.58195        1.91403       -1.91490
