12
/scratch/dz1061/gcn/chemGraph/data/deepchem/freesol/split/QM_opt/gjf/147.log	Energy: -1010933.4633800
C          0.00000       -2.50999        0.00000
C         -1.20757       -1.81746       -0.00000
C         -1.20719       -0.42268       -0.00000
C         -0.00000        0.29678       -0.00000
C          1.20719       -0.42268        0.00000
C          1.20757       -1.81746       -0.00000
Cl         2.74439        0.40744        0.00000
Cl        -0.00000        2.03484       -0.00000
Cl        -2.74439        0.40744        0.00000
H          0.00000       -3.59559        0.00000
H         -2.15509       -2.34444        0.00000
H          2.15509       -2.34444        0.00000
