22
/scratch/dz1061/gcn/chemGraph/data/deepchem/freesol/split/QM_opt/gjf/149.log	Energy: -1249558.6660247
C          4.76194        0.01631        0.00001
C          4.50958       -1.35575        0.00001
C          3.19445       -1.82756        0.00000
C          2.14303       -0.92025       -0.00000
C          2.39525        0.45208       -0.00000
C          3.70101        0.92542        0.00000
O          1.36384        1.37530       -0.00001
C          0.08896        0.87555       -0.00001
C         -0.98332        1.76781       -0.00000
C         -2.29677        1.30128        0.00000
C         -2.54486       -0.06781        0.00000
C         -1.48086       -0.98344       -0.00000
C         -0.16682       -0.50268       -0.00001
O          0.85037       -1.41851       -0.00001
Cl        -1.74178       -2.70054       -0.00000
Cl        -4.20054       -0.61745        0.00001
Cl        -0.67345        3.48416        0.00000
H          5.78249        0.38630        0.00001
H          5.33158       -2.06475        0.00001
H          2.96613       -2.88848        0.00000
H          3.86544        1.99812        0.00000
H         -3.12072        2.00378        0.00001
