28
/scratch/dz1061/gcn/chemGraph/data/deepchem/freesol/split/QM_opt/gjf/154.log	Energy: -409947.6391243
C          5.82324       -1.23530        0.00001
C          4.83939       -0.06103        0.00001
C          3.37308       -0.51365       -0.00000
C          2.40803        0.66189       -0.00000
O          1.06687        0.13018       -0.00001
C          0.06871        1.04592       -0.00002
O          0.27065        2.24631        0.00000
C         -1.27729        0.41885       -0.00001
C         -2.39657        1.26193        0.00001
C         -3.68184        0.73385        0.00001
C         -3.86225       -0.65583        0.00001
C         -2.75099       -1.50919       -0.00001
C         -1.47046       -0.97201       -0.00002
O         -5.09596       -1.23548        0.00001
H          5.68453       -1.86815        0.88497
H          5.68454       -1.86814       -0.88496
H          6.86101       -0.88400        0.00002
H          5.02623        0.57252       -0.87838
H          5.02622        0.57251        0.87840
H          3.17483       -1.13888        0.88069
H          3.17484       -1.13887       -0.88070
H          2.53872        1.29746       -0.88290
H          2.53871        1.29745        0.88291
H         -2.23843        2.33535        0.00001
H         -4.54665        1.39503        0.00002
H         -2.91339       -2.58218       -0.00001
H         -0.60876       -1.62998       -0.00003
H         -5.77324       -0.54078        0.00002
