14
/scratch/dz1061/gcn/chemGraph/data/deepchem/freesol/split/QM_opt/gjf/155.log	Energy: -169787.0083956
C          1.38200       -0.73977        0.22666
C          1.38200        0.73977       -0.22666
C         -0.02982        1.23875        0.12204
C         -0.92789        0.00000       -0.00000
O         -2.13882        0.00000        0.00000
C         -0.02982       -1.23875       -0.12204
H          1.53931       -0.79423        1.31167
H          2.17601       -1.32572       -0.24624
H          2.17601        1.32572        0.24624
H          1.53931        0.79424       -1.31167
H         -0.40572        2.05658       -0.50017
H         -0.08368        1.58063        1.16596
H         -0.08368       -1.58063       -1.16596
H         -0.40572       -2.05658        0.50017
