19
/scratch/dz1061/gcn/chemGraph/data/deepchem/freesol/split/QM_opt/gjf/160.log	Energy: -171917.5259023
C          2.51759        0.06842        0.04943
C          1.01121        0.08293        0.00490
C          0.30984        1.22115       -0.08890
C         -1.19756        1.29914       -0.10320
C         -1.85147       -0.01610        0.34634
C         -1.15675       -1.21532       -0.30921
C          0.32768       -1.26844        0.08198
H          2.93620       -0.49764       -0.79483
H          2.93587        1.07993        0.02095
H          2.88263       -0.42307        0.96279
H          0.84777        2.16726       -0.15828
H         -1.53035        2.12587        0.54009
H         -1.54278        1.56151       -1.11664
H         -1.77017       -0.10672        1.43866
H         -2.92224       -0.00909        0.10812
H         -1.65324       -2.15310       -0.03080
H         -1.24062       -1.12601       -1.40148
H          0.43315       -1.66573        1.10485
H          0.86052       -1.98384       -0.56144
