15
/scratch/dz1061/gcn/chemGraph/data/deepchem/freesol/split/QM_opt/gjf/169.log	Energy: -146624.5360212
C          2.52023       -0.29643        0.00000
C          1.22975        0.52941        0.00000
C         -0.03455       -0.33867        0.00000
C         -1.32042        0.47748        0.00000
O         -2.41969       -0.42991        0.00000
H          3.40674        0.34786        0.00000
H          2.57638       -0.94233        0.88465
H          2.57638       -0.94233       -0.88465
H          1.22020        1.19026       -0.87858
H          1.22020        1.19026        0.87858
H         -0.04076       -0.99553        0.88002
H         -0.04076       -0.99553       -0.88002
H         -1.34744        1.13179       -0.88784
H         -1.34744        1.13179        0.88784
H         -3.23599        0.09226       -0.00000
