18
/scratch/dz1061/gcn/chemGraph/data/deepchem/freesol/split/QM_opt/gjf/175.log	Energy: -242151.3274265
C         -2.43364        0.70847        0.00000
C         -2.43364       -0.70847       -0.00000
C         -1.24479       -1.40248        0.00000
C          0.00000       -0.71693        0.00000
C          1.24479       -1.40248        0.00000
C          2.43364       -0.70847       -0.00000
C          2.43364        0.70847        0.00000
C          1.24479        1.40248        0.00000
C          0.00000        0.71693        0.00000
C         -1.24479        1.40248        0.00000
H         -3.37833        1.24558       -0.00000
H         -3.37833       -1.24558       -0.00000
H         -1.24204       -2.49017        0.00000
H          1.24204       -2.49017        0.00000
H          3.37833       -1.24558       -0.00000
H          3.37833        1.24558       -0.00000
H          1.24204        2.49017       -0.00000
H         -1.24204        2.49017       -0.00000
