19
/scratch/dz1061/gcn/chemGraph/data/deepchem/freesol/split/QM_opt/gjf/177.log	Energy: -195215.2622412
C          1.94994       -0.79334       -0.00793
C          0.90898        0.31937       -0.01920
O          1.26164        1.48444       -0.02942
C         -0.58715       -0.06524       -0.00751
C         -0.86713       -1.21209       -1.00140
C         -0.94198       -0.52480        1.42820
C         -1.43186        1.16538       -0.37414
H          1.68942       -1.60879        0.67454
H          2.03524       -1.22840       -1.01185
H          2.91778       -0.37031        0.26901
H         -1.93592       -1.45585       -0.99540
H         -0.59819       -0.92856       -2.02609
H         -0.32011       -2.12608       -0.74639
H         -2.00759       -0.77707        1.48321
H         -0.37579       -1.41290        1.73078
H         -0.74569        0.27024        2.15626
H         -1.20162        1.51490       -1.38619
H         -1.23680        1.99495        0.31017
H         -2.49861        0.91667       -0.33079
