22
/scratch/dz1061/gcn/chemGraph/data/deepchem/freesol/split/QM_opt/gjf/179.log	Energy: -183499.7547495
C         -2.32183        0.09611       -1.06087
C         -1.24066        0.26289        0.01288
C         -1.70602       -0.32397        1.35925
N          0.01365       -0.30742       -0.50243
C          1.24576       -0.05767        0.26042
C          1.69637        1.39891        0.09193
C          2.32689       -1.01761       -0.24673
H         -2.52318       -0.96770       -1.24717
H         -3.26457        0.56113       -0.75054
H         -1.99744        0.54715       -2.00343
H         -1.06862        1.33799        0.14956
H         -1.91725       -1.39730        1.25929
H         -2.62444        0.16464        1.70670
H         -0.95004       -0.20147        2.14245
H         -0.11306       -1.31538       -0.59843
H          1.11274       -0.24716        1.34256
H          1.85818        1.62277       -0.96854
H          2.63162        1.57560        0.63586
H          0.95458        2.10654        0.47756
H          2.49430       -0.86901       -1.31977
H          3.27359       -0.85374        0.27920
H          2.03502       -2.06407       -0.08959
