22
/scratch/dz1061/gcn/chemGraph/data/deepchem/freesol/split/QM_opt/gjf/180.log	Energy: -961166.3661581
C          3.37001        1.41762        0.00000
C          2.04166        1.84807       -0.00000
C          1.00446        0.92406       -0.00000
C          1.29022       -0.44598       -0.00000
C          2.60727       -0.88976       -0.00000
C          3.63808        0.05097        0.00000
Cl         5.30243       -0.51031        0.00000
O          0.29280       -1.39738       -0.00000
C         -1.00446       -0.92406       -0.00000
C         -2.04166       -1.84807        0.00000
C         -3.37001       -1.41762        0.00000
C         -3.63808       -0.05097        0.00000
C         -2.60728        0.88976       -0.00000
C         -1.29022        0.44598       -0.00000
O         -0.29280        1.39738       -0.00000
Cl        -5.30243        0.51031        0.00000
H          4.18165        2.13596        0.00000
H          1.79616        2.90511       -0.00000
H          2.80882       -1.95463       -0.00000
H         -1.79616       -2.90511       -0.00000
H         -4.18165       -2.13596        0.00000
H         -2.80882        1.95463        0.00000
