25
/scratch/dz1061/gcn/chemGraph/data/deepchem/freesol/split/QM_opt/gjf/181.log	Energy: -208169.0889245
C         -4.48214       -0.26599        0.01732
C         -3.17697        0.53570       -0.01733
C         -1.92261       -0.34705        0.01325
C         -0.61120        0.44789       -0.02164
C          0.64285       -0.43549        0.00972
C          1.95175        0.36238       -0.03039
C          3.20153       -0.51926        0.01068
N          4.41689        0.30016       -0.07930
H         -4.54837       -0.87661        0.92637
H         -4.55325       -0.94488       -0.84154
H         -5.35811        0.39244       -0.00571
H         -3.15133        1.23040        0.83440
H         -3.15617        1.16248       -0.92026
H         -1.94903       -1.04279       -0.83886
H         -1.94390       -0.97485        0.91681
H         -0.59018        1.07478       -0.92531
H         -0.58585        1.14393        0.83011
H          0.62191       -1.06156        0.91433
H          0.61593       -1.13202       -0.84152
H          1.99324        0.98020       -0.93671
H          1.97725        1.06131        0.82026
H          3.16003       -1.16271        0.91015
H          3.19449       -1.19571       -0.85420
H          4.49704        0.87748        0.75766
H          5.23888       -0.30215       -0.08054
