16
/scratch/dz1061/gcn/chemGraph/data/deepchem/freesol/split/QM_opt/gjf/187.log	Energy: -217609.6091940
C         -2.54608       -0.90755        0.00847
C         -1.20182       -0.21661       -0.01008
C         -1.10676        1.17910       -0.00752
C          0.14459        1.80150        0.00203
C          1.31631        1.05108        0.00665
C          1.22773       -0.34531        0.00098
C         -0.02116       -0.97125       -0.00860
O          2.40197       -1.04980        0.00179
H         -2.79656       -1.26468        1.01630
H         -2.56050       -1.77963       -0.65533
H         -3.34630       -0.23059       -0.30695
H         -2.01256        1.77978       -0.01372
H          0.20644        2.88671        0.00225
H          2.29559        1.51884        0.01071
H         -0.07655       -2.05993       -0.01593
H          2.19776       -1.99782       -0.00324
