28
/scratch/dz1061/gcn/chemGraph/data/deepchem/freesol/split/QM_opt/gjf/189.log	Energy: -501693.2372626
C         -4.01891       -0.70075        0.01493
C         -4.01891        0.70068        0.01494
C         -2.81578        1.39762        0.00649
C         -1.59854        0.70226       -0.00159
C         -1.59854       -0.70233       -0.00159
C         -2.81578       -1.39769        0.00648
C         -0.32549       -1.46863       -0.01112
O         -0.37385       -2.71348       -0.00353
C          0.93671       -0.72112       -0.02174
C          2.16289       -1.43117       -0.00476
C          3.37394       -0.68332        0.03679
C          3.37386        0.68359        0.03677
C          2.16269        1.43124       -0.00481
C          0.93666        0.72103       -0.02177
C         -0.32549        1.46854       -0.01119
O         -0.37370        2.71339       -0.00333
N          2.23663        2.79234       -0.05371
N          2.23718       -2.79225       -0.05359
H         -4.96007       -1.24410        0.02111
H         -4.96007        1.24402        0.02112
H         -2.78757        2.48188        0.00574
H         -2.78756       -2.48196        0.00573
H          4.31779       -1.22362        0.05900
H          4.31763        1.22402        0.05896
H          3.11185        3.24273        0.16627
H          1.36130        3.29961        0.03718
H          3.11255       -3.24238        0.16635
H          1.36200       -3.29974        0.03741
