28
/scratch/dz1061/gcn/chemGraph/data/deepchem/freesol/split/QM_opt/gjf/190.log	Energy: -269226.0815656
C         -5.43219       -0.26320        0.00000
C         -4.11761        0.52375        0.00000
C         -2.87403       -0.37472        0.00000
C         -1.55342        0.40590       -0.00000
C         -0.30987       -0.49284       -0.00000
C          1.00594        0.29512       -0.00001
C          2.24206       -0.60596       -0.00001
C          3.56528        0.15305       -0.00001
O          3.61112        1.36875        0.00000
C          4.83147       -0.68998        0.00001
H         -5.50848       -0.90745       -0.88469
H         -5.50848       -0.90745        0.88470
H         -6.30005        0.40623        0.00001
H         -4.08644        1.18446        0.87803
H         -4.08645        1.18446       -0.87802
H         -2.90582       -1.03648       -0.87862
H         -2.90582       -1.03648        0.87862
H         -1.52190        1.06733       -0.87832
H         -1.52190        1.06733        0.87832
H         -0.34158       -1.15488       -0.87852
H         -0.34158       -1.15488        0.87851
H          1.04609        0.95688       -0.87414
H          1.04609        0.95688        0.87413
H          2.23681       -1.27808       -0.87230
H          2.23681       -1.27808        0.87228
H          5.70868       -0.03974        0.00002
H          4.85957       -1.34337        0.88109
H          4.85959       -1.34337       -0.88106
