16
/scratch/dz1061/gcn/chemGraph/data/deepchem/freesol/split/QM_opt/gjf/191.log	Energy: -134159.8814780
C          2.53964       -0.30683       -0.01296
C          1.25366        0.52475        0.03424
C         -0.01811       -0.32912       -0.03544
C         -1.30652        0.49399        0.01980
N         -2.48333       -0.37634       -0.09916
H          3.43044        0.32987        0.03586
H          2.58707       -1.01123        0.82674
H          2.59836       -0.89263       -0.93840
H          1.24106        1.12576        0.95482
H          1.25323        1.24342       -0.79771
H         -0.02549       -0.92451       -0.95769
H         -0.01590       -1.05052        0.79678
H         -1.29882        1.11527        0.93568
H         -1.32509        1.19217       -0.82749
H         -2.54205       -0.97828        0.72208
H         -3.33155        0.18835       -0.09046
