20
/scratch/dz1061/gcn/chemGraph/data/deepchem/freesol/split/QM_opt/gjf/192.log	Energy: -242429.3786524
C          3.71196       -0.59226       -0.00001
C          2.46625        0.29823       -0.00000
C          1.16892       -0.51324        0.00001
C         -0.07670        0.35249        0.00002
O         -0.09527        1.56452       -0.00000
O         -1.19405       -0.41170        0.00001
C         -2.44943        0.30388       -0.00000
C         -3.56326       -0.72656       -0.00001
H          3.74062       -1.24032        0.88482
H          4.62687        0.01040       -0.00002
H          3.74060       -1.24033       -0.88484
H          2.47496        0.95936        0.87441
H          2.47495        0.95935       -0.87442
H          1.11737       -1.17784       -0.87326
H          1.11738       -1.17783        0.87329
H         -2.48885        0.95102       -0.88254
H         -2.48886        0.95102        0.88252
H         -4.53638       -0.22314       -0.00002
H         -3.50529       -1.36476       -0.88755
H         -3.50531       -1.36475        0.88754
