17
/scratch/dz1061/gcn/chemGraph/data/deepchem/freesol/split/QM_opt/gjf/193.log	Energy: -205144.7680747
C          2.91247        0.00000        0.00431
C          1.40101       -0.00000       -0.01251
C          0.67151       -1.19560       -0.00866
C         -0.72115       -1.20410        0.00441
C         -1.44276       -0.00000        0.01268
C         -0.72115        1.20410        0.00441
C          0.67151        1.19560       -0.00866
N         -2.84363        0.00000        0.08509
H          3.31913       -0.88511       -0.49766
H          3.31913        0.88511       -0.49767
H          3.30831        0.00000        1.02944
H          1.20285       -2.14531       -0.02021
H         -1.25766       -2.15085        0.00836
H         -1.25766        2.15085        0.00836
H          1.20285        2.14531       -0.02021
H         -3.28007       -0.83349       -0.29099
H         -3.28007        0.83349       -0.29099
