19
/scratch/dz1061/gcn/chemGraph/data/deepchem/freesol/split/QM_opt/gjf/2.log	Energy: -242282.0771500
C         -2.39008       -1.64031        0.00234
C         -1.14908       -0.77712        0.00001
C          0.12542       -1.34746       -0.00969
C          1.28235       -0.55206       -0.01100
C          1.14990        0.83607       -0.00859
C         -0.12206        1.41925        0.00081
C         -1.26523        0.61994        0.00538
O         -0.18124        2.78789        0.00165
C          2.65130       -1.19304        0.00957
H         -2.13524       -2.70417       -0.02561
H         -2.99725       -1.46624        0.89974
H         -3.02907       -1.42670       -0.86368
H          0.22358       -2.43090       -0.01772
H          2.02139        1.48428       -0.01514
H         -2.25143        1.08397        0.00884
H         -1.11231        3.05899        0.00560
H          2.68110       -2.09296       -0.61481
H          3.42241       -0.50448       -0.35052
H          2.93162       -1.49656        1.02710
