9
/scratch/dz1061/gcn/chemGraph/data/deepchem/freesol/split/QM_opt/gjf/206.log	Energy:  -73988.1099042
C         -1.13905       -0.50435        0.00000
C         -0.00000        0.47475       -0.00000
C          1.29321        0.15013        0.00000
H         -1.78122       -0.36630        0.88043
H         -1.78122       -0.36630       -0.88043
H         -0.77949       -1.53887        0.00000
H         -0.27844        1.52983       -0.00000
H          1.62149       -0.88767        0.00000
H          2.07392        0.90610       -0.00000
