21
/scratch/dz1061/gcn/chemGraph/data/deepchem/freesol/split/QM_opt/gjf/210.log	Energy: -219749.5975505
C          2.31139        0.13174       -1.26958
C          1.64324       -0.42906        0.00000
C          2.31139        0.13174        1.26958
C          0.13765       -0.19548        0.00000
C         -0.40111        1.10014       -0.00000
C         -1.78059        1.30574       -0.00000
C         -2.65410        0.21597       -0.00000
C         -2.13401       -1.07829        0.00000
C         -0.75187       -1.27739        0.00000
H          3.38342       -0.09926       -1.27687
H          1.86367       -0.29410       -2.17413
H          2.20594        1.22171       -1.32665
H          1.80013       -1.51649        0.00000
H          1.86367       -0.29410        2.17413
H          3.38342       -0.09926        1.27687
H          2.20594        1.22171        1.32665
H          0.26357        1.96088       -0.00000
H         -2.17431        2.31914       -0.00000
H         -3.72913        0.37543       -0.00000
H         -2.80269       -1.93546        0.00000
H         -0.35556       -2.29083        0.00000
