16
/scratch/dz1061/gcn/chemGraph/data/deepchem/freesol/split/QM_opt/gjf/218.log	Energy: -251588.2953248
C         -2.54253       -1.04334       -0.00000
C         -1.68402        0.20905        0.00001
O         -2.19344        1.31877       -0.00001
C         -0.19112        0.06525        0.00001
C          0.60209        1.22126        0.00000
C          1.98467        1.08977       -0.00000
C          2.53016       -0.19766       -0.00000
N          1.79597       -1.31698       -0.00000
C          0.46596       -1.17332        0.00000
H         -2.33862       -1.66099        0.88290
H         -3.59281       -0.74728       -0.00001
H         -2.33860       -1.66098       -0.88291
H          0.11317        2.19042        0.00000
H          2.63366        1.96044       -0.00000
H          3.60996       -0.33759       -0.00001
H         -0.10222       -2.10135        0.00000
