12
/scratch/dz1061/gcn/chemGraph/data/deepchem/freesol/split/QM_opt/gjf/224.log	Energy: -371687.3287657
C          2.28241        0.10513        0.00000
C          0.78680        0.22211        0.00000
C          0.02137        1.35757       -0.00000
C         -1.38630        1.10447       -0.00000
C         -1.68297       -0.22804        0.00000
S         -0.23904       -1.19688       -0.00000
H          2.73037        1.10390       -0.00000
H          2.65353       -0.42809        0.88389
H          2.65353       -0.42810       -0.88389
H          0.45467        2.35304       -0.00000
H         -2.14027        1.88458       -0.00000
H         -2.65498       -0.70263        0.00000
