25
/scratch/dz1061/gcn/chemGraph/data/deepchem/freesol/split/QM_opt/gjf/23.log	Energy: -291615.7973128
C          2.39230       -0.74282        1.26149
C          1.88982       -0.00124        0.00000
C          2.50391        1.41166        0.00000
C          2.39230       -0.74282       -1.26150
C          0.35051        0.03220       -0.00000
C         -0.38022       -1.16680       -0.00000
C         -1.77317       -1.18399       -0.00000
C         -2.48596        0.01884       -0.00000
C         -1.78639        1.22604        0.00000
C         -0.39192        1.22260       -0.00000
O         -3.85467        0.07191       -0.00000
H          3.48872       -0.78134        1.27315
H          2.05985       -0.23348        2.17322
H          2.02323       -1.77322        1.30222
H          3.59747        1.33948        0.00000
H          2.21098        1.98371       -0.88780
H          2.21099        1.98371        0.88781
H          3.48872       -0.78133       -1.27315
H          2.05985       -0.23348       -2.17322
H          2.02323       -1.77321       -1.30223
H          0.14236       -2.11963       -0.00000
H         -2.30587       -2.13399       -0.00000
H         -2.34320        2.15808        0.00000
H          0.11608        2.18080        0.00000
H         -4.20214       -0.83340        0.00000
