22
/scratch/dz1061/gcn/chemGraph/data/deepchem/freesol/split/QM_opt/gjf/232.log	Energy: -360608.2955749
C          4.22354       -1.27329        0.00001
C          3.44763        0.03058        0.00000
O          2.04276       -0.29996       -0.00000
C          1.18973        0.75268       -0.00001
O          1.56644        1.91019        0.00000
C         -0.23355        0.33029       -0.00000
C         -1.21673        1.32879        0.00000
C         -2.56560        0.99539        0.00000
C         -2.94832       -0.35272        0.00000
C         -1.97452       -1.36020       -0.00000
C         -0.62901       -1.01710       -0.00001
O         -4.25368       -0.74483        0.00000
H          5.29932       -1.06575        0.00001
H          3.98774       -1.86871       -0.88789
H          3.98773       -1.86871        0.88791
H          3.66816        0.64009        0.88253
H          3.66817        0.64009       -0.88253
H         -0.90237        2.36727        0.00000
H         -3.32394        1.77640        0.00001
H         -2.29303       -2.39761       -0.00000
H          0.12668       -1.79453       -0.00001
H         -4.82171        0.04172        0.00001
