22
/scratch/dz1061/gcn/chemGraph/data/deepchem/freesol/split/QM_opt/gjf/233.log	Energy: -243156.3967012
C          4.16054        0.35874       -0.00000
C          2.94307       -0.55112        0.00000
O          1.77833        0.25697        0.00000
C          0.58008       -0.49241        0.00000
C         -0.58008        0.49241       -0.00000
O         -1.77833       -0.25697       -0.00000
C         -2.94307        0.55112        0.00000
C         -4.16054       -0.35874       -0.00000
H          4.15978        1.00035       -0.88708
H          5.08187       -0.23413        0.00000
H          4.15978        1.00035        0.88708
H          2.94856       -1.20756       -0.88717
H          2.94856       -1.20756        0.88717
H          0.51562       -1.14131        0.88882
H          0.51563       -1.14131       -0.88882
H         -0.51562        1.14131       -0.88882
H         -0.51563        1.14131        0.88882
H         -2.94856        1.20756       -0.88717
H         -2.94856        1.20756        0.88717
H         -4.15978       -1.00035        0.88708
H         -4.15978       -1.00035       -0.88708
H         -5.08187        0.23413        0.00000
