22
/scratch/dz1061/gcn/chemGraph/data/deepchem/freesol/split/QM_opt/gjf/235.log	Energy: -266948.7572579
C          4.20204       -0.00000        0.34358
C          2.69445        0.01203        0.61291
C          1.85330       -0.02765       -0.67903
C          0.36106       -0.01347       -0.42489
C         -0.34078        1.19400       -0.29001
C         -1.70550        1.22150       -0.01771
C         -2.40693        0.02029        0.12701
C         -1.73047       -1.19545       -0.00521
C         -0.36196       -1.20266       -0.27829
O         -3.74900        0.09849        0.39078
H          4.50486        0.86522       -0.25921
H          4.50096       -0.90326       -0.20276
H          4.77443        0.02856        1.27776
H          2.42518        0.90881        1.18687
H          2.42082       -0.84490        1.24300
H          2.12292       -0.92668       -1.24996
H          2.12970        0.82997       -1.30772
H          0.19264        2.13536       -0.40539
H         -2.24319        2.15952        0.08038
H         -2.27162       -2.13474        0.09929
H          0.14980       -2.15712       -0.38297
H         -4.10576       -0.80017        0.46422
