24
/scratch/dz1061/gcn/chemGraph/data/deepchem/freesol/split/QM_opt/gjf/239.log	Energy: -291496.1336880
C         -3.00238       -1.47982       -0.00000
C         -1.69904       -0.71742        0.00000
C         -0.49550       -1.39074        0.00000
C          0.75301       -0.71498        0.00000
C          1.99575       -1.40251        0.00000
C          3.18535       -0.70829        0.00000
C          3.18535        0.70829       -0.00000
C          1.99575        1.40251       -0.00000
C          0.75301        0.71498       -0.00000
C         -0.49550        1.39074       -0.00000
C         -1.69904        0.71742       -0.00000
C         -3.00238        1.47982        0.00000
H         -3.61362       -1.24112        0.88023
H         -2.82574       -2.55959        0.00000
H         -3.61362       -1.24113       -0.88023
H         -0.49256       -2.47934        0.00000
H          1.99244       -2.49031        0.00000
H          4.12998       -1.24564        0.00000
H          4.12998        1.24564       -0.00000
H          1.99244        2.49031       -0.00000
H         -0.49256        2.47934       -0.00000
H         -3.61362        1.24113        0.88023
H         -3.61362        1.24112       -0.88023
H         -2.82574        2.55959       -0.00001
