34
/scratch/dz1061/gcn/chemGraph/data/deepchem/freesol/split/QM_opt/gjf/250.log	Energy: -318565.5382751
C          6.74342       -0.27134       -0.00000
C          5.43856        0.53166        0.00000
C          4.18396       -0.35138       -0.00000
C          2.87267        0.44495        0.00000
C          1.61824       -0.43849       -0.00000
C          0.30747        0.35884        0.00000
C         -0.94714       -0.52444       -0.00000
C         -2.25308        0.27981        0.00000
C         -3.50027       -0.60589       -0.00000
C         -4.81398        0.16948       -0.00000
O         -4.84478        1.38563       -0.00000
C         -6.09052       -0.65783        0.00000
H          6.81168       -0.91653       -0.88467
H          7.61956        0.38727        0.00000
H          6.81169       -0.91653        0.88467
H          5.41563        1.19274        0.87806
H          5.41564        1.19274       -0.87806
H          4.20752       -1.01349       -0.87857
H          4.20752       -1.01350        0.87856
H          2.85008        1.10689        0.87847
H          2.85008        1.10689       -0.87846
H          1.64071       -1.10043       -0.87858
H          1.64071       -1.10044        0.87857
H          0.28419        1.02060       -0.87830
H          0.28419        1.02059        0.87830
H         -0.92365       -1.18682        0.87852
H         -0.92365       -1.18682       -0.87852
H         -2.28501        0.94200       -0.87414
H         -2.28501        0.94200        0.87414
H         -3.50334       -1.27801       -0.87230
H         -3.50334       -1.27801        0.87229
H         -6.12673       -1.31083       -0.88106
H         -6.95960        0.00324       -0.00000
H         -6.12673       -1.31082        0.88108
