24
/scratch/dz1061/gcn/chemGraph/data/deepchem/freesol/split/QM_opt/gjf/253.log	Energy: -267705.3012449
C         -2.48763       -1.70122        0.02241
C         -1.35802       -0.71624       -0.09749
C         -1.55204        0.61278        0.01582
C         -0.46191        1.59525       -0.12432
O         -0.65098        2.79339        0.03813
C          0.90110        1.04643       -0.53397
C          1.19448       -0.36964        0.00829
C          0.01316       -1.29271       -0.37620
C          1.35969       -0.32625        1.54132
C          2.49119       -0.90895       -0.61850
H         -3.45226       -1.20403        0.15874
H         -2.32308       -2.37951        0.87088
H         -2.54845       -2.33490       -0.87321
H         -2.53720        1.02605        0.22031
H          0.91524        1.02213       -1.63527
H          1.66665        1.76609       -0.22444
H          0.06883       -1.52876       -1.45187
H          0.11429       -2.25914        0.13797
H          1.59434       -1.32283        1.93492
H          0.45258        0.02787        2.04203
H          2.17975        0.34493        1.82213
H          2.42276       -0.94315       -1.71274
H          3.34599       -0.27446       -0.35569
H          2.70815       -1.92410       -0.26303
