15
/scratch/dz1061/gcn/chemGraph/data/deepchem/freesol/split/QM_opt/gjf/257.log	Energy: -1783803.4896998
C         -3.97390        0.00000        0.01528
C         -2.46326       -0.00000       -0.01002
C         -1.74153        1.20071       -0.01022
C         -0.34654        1.21182       -0.00422
C          0.33985       -0.00000       -0.00017
C         -0.34654       -1.21182       -0.00422
C         -1.74153       -1.20071       -0.01022
Br         2.25468        0.00000        0.00308
H         -4.38298       -0.88600       -0.48156
H         -4.35440        0.00000        1.04550
H         -4.38298        0.88600       -0.48156
H         -2.27583        2.14804       -0.01686
H          0.19955        2.14902       -0.00679
H          0.19955       -2.14902       -0.00679
H         -2.27583       -2.14804       -0.01686
