31
/scratch/dz1061/gcn/chemGraph/data/deepchem/freesol/split/QM_opt/gjf/270.log	Energy: -293895.7149822
C          5.81425       -0.32306        0.17660
C          4.43414       -0.65155       -0.40205
C          3.30557        0.19010        0.20748
C          1.91989       -0.13282       -0.36588
C          0.79197        0.70928        0.24422
C         -0.59330        0.38083       -0.32663
C         -1.71420        1.23120        0.28634
C         -3.10285        0.92279       -0.28243
C         -3.68750       -0.41451        0.16623
O         -3.19631       -1.06614        1.06911
C         -4.93250       -0.88743       -0.56729
H          6.59746       -0.94021       -0.27853
H          5.84125       -0.49608        1.25959
H          6.07644        0.72824        0.00426
H          4.44897       -0.50254       -1.49126
H          4.21559       -1.71744       -0.24492
H          3.52487        1.25706        0.05082
H          3.29146        0.04119        1.29757
H          1.93508        0.01526       -1.45621
H          1.70112       -1.19927       -0.20793
H          0.77708        0.56078        1.33388
H          1.00895        1.77650        0.08551
H         -0.58006        0.52810       -1.41761
H         -0.81322       -0.68053       -0.15586
H         -1.49467        2.29480        0.12246
H         -1.73751        1.07389        1.37120
H         -3.82521        1.69493        0.02637
H         -3.10060        0.95825       -1.38190
H         -5.67761       -0.08646       -0.64384
H         -4.66911       -1.17687       -1.59312
H         -5.36246       -1.74939       -0.05299
