12
/scratch/dz1061/gcn/chemGraph/data/deepchem/freesol/split/QM_opt/gjf/271.log	Energy: -434139.2678041
C         -2.27520        0.00000        0.00000
C         -1.57453        1.20741        0.00000
C         -0.17868        1.21603       -0.00000
C          0.50379       -0.00000       -0.00000
C         -0.17868       -1.21603       -0.00000
C         -1.57453       -1.20741        0.00000
Cl         2.26491        0.00000        0.00000
H         -3.36133        0.00000        0.00000
H         -2.11217        2.15164       -0.00000
H          0.37461        2.14918       -0.00000
H          0.37461       -2.14918       -0.00000
H         -2.11217       -2.15164       -0.00000
