40
/scratch/dz1061/gcn/chemGraph/data/deepchem/freesol/split/QM_opt/gjf/272.log	Energy: -495987.1268997
C          5.19047       -1.85099        0.00484
N          4.23404       -0.79658       -0.30724
C          4.70902        0.49055        0.18782
C          2.89391       -1.12554        0.17531
C          1.80547       -0.33195       -0.54521
O          0.55597       -0.78652       -0.04297
C         -0.57754       -0.17123       -0.64332
C         -0.71227        1.28959       -0.22108
C         -0.82339        2.30866       -1.17122
C         -0.95545        3.64268       -0.77448
C         -0.96517        3.96798        0.58118
C         -0.84337        2.95508        1.53802
C         -0.72013        1.62598        1.13972
C         -1.81210       -0.99844       -0.28812
C         -1.70590       -2.20023        0.41858
C         -2.84707       -2.95230        0.70935
C         -4.10447       -2.51789        0.29167
C         -4.21625       -1.32018       -0.41880
C         -3.07924       -0.56597       -0.70273
H          4.85767       -2.79724       -0.43465
H          6.16545       -1.60025       -0.42769
H          5.33259       -2.00807        1.09274
H          5.68844        0.71098       -0.25041
H          4.02626        1.29281       -0.10597
H          4.81290        0.51714        1.29115
H          2.70863       -2.18771       -0.01882
H          2.78903       -0.97690        1.26778
H          1.87536       -0.51126       -1.62939
H          1.91267        0.74823       -0.37668
H         -0.45429       -0.19513       -1.74046
H         -0.80388        2.05911       -2.23035
H         -1.04274        4.42404       -1.52499
H         -1.06422        5.00424        0.89349
H         -0.84788        3.20390        2.59615
H         -0.62570        0.83651        1.88012
H         -0.72764       -2.54099        0.73603
H         -2.74862       -3.88254        1.26339
H         -4.99080       -3.10518        0.51705
H         -5.19091       -0.97008       -0.74905
H         -3.17740        0.37169       -1.24417
