16
/scratch/dz1061/gcn/chemGraph/data/deepchem/freesol/split/QM_opt/gjf/273.log	Energy: -170539.9638002
C         -2.84218       -0.50592        0.00000
C         -1.69168        0.50566       -0.00000
C         -0.31075       -0.16123        0.00000
C          0.84089        0.84497        0.00000
C          2.21690        0.21924        0.00000
O          2.43595       -0.97230       -0.00000
H         -2.80004       -1.15295        0.88458
H         -2.80004       -1.15296       -0.88458
H         -3.81596       -0.00331       -0.00000
H         -1.78103        1.16127       -0.87819
H         -1.78103        1.16127        0.87819
H         -0.21270       -0.81676        0.87463
H         -0.21270       -0.81676       -0.87462
H          0.78811        1.51720       -0.87202
H          0.78811        1.51721        0.87202
H          3.06055        0.94794       -0.00000
