14
/scratch/dz1061/gcn/chemGraph/data/deepchem/freesol/split/QM_opt/gjf/291.log	Energy: -1712831.0325433
C         -1.29220        0.88593        1.16500
C         -0.85850       -0.00000        0.00000
C         -1.29223       -1.45187        0.18473
C         -1.29222        0.56596       -1.34973
Br         1.17507       -0.00000       -0.00000
H         -0.92455        0.49656        2.11866
H         -2.38974        0.91773        1.20679
H         -0.92454        1.90895        1.04464
H         -0.92437       -2.08317       -0.62914
H         -2.38977       -1.50395        0.19108
H         -0.92483       -1.85907        1.13102
H         -0.92451        1.58652       -1.48940
H         -0.92463       -0.04984       -2.17551
H         -2.38976        0.58633       -1.39813
