23
/scratch/dz1061/gcn/chemGraph/data/deepchem/freesol/split/QM_opt/gjf/296.log	Energy: -314647.7989607
C          3.46204        0.11463       -0.00000
C          3.01656       -1.21180       -0.00000
C          1.65118       -1.50436        0.00000
C          0.73484       -0.45026        0.00000
C          1.18480        0.88667        0.00000
C          2.54535        1.17222       -0.00000
C          0.00000        1.83278        0.00000
C         -1.18480        0.88667       -0.00000
C         -0.73484       -0.45026       -0.00000
C         -1.65118       -1.50436        0.00000
C         -3.01656       -1.21180        0.00000
C         -3.46204        0.11463       -0.00000
C         -2.54535        1.17222       -0.00000
H          4.52812        0.32548       -0.00000
H          3.74038       -2.02259       -0.00000
H          1.31204       -2.53722        0.00000
H          2.89769        2.20128       -0.00000
H          0.00000        2.49203       -0.87940
H         -0.00000        2.49203        0.87940
H         -1.31204       -2.53722        0.00000
H         -3.74038       -2.02259       -0.00000
H         -4.52812        0.32548       -0.00000
H         -2.89769        2.20128       -0.00000
