13
/scratch/dz1061/gcn/chemGraph/data/deepchem/freesol/split/QM_opt/gjf/297.log	Energy: -488714.7265405
C          2.51236       -0.33053        0.00000
O          1.17073       -0.87940       -0.00000
S          0.00000        0.23767        0.00000
O          0.00000        0.97289        1.25742
O         -0.00000        0.97289       -1.25742
O         -1.17073       -0.87940       -0.00000
C         -2.51236       -0.33053        0.00000
H          2.67678        0.26811       -0.89987
H          2.67678        0.26811        0.89987
H          3.16577       -1.20237       -0.00000
H         -2.67678        0.26811        0.89987
H         -2.67678        0.26811       -0.89987
H         -3.16577       -1.20237        0.00000
