20
/scratch/dz1061/gcn/chemGraph/data/deepchem/freesol/split/QM_opt/gjf/299.log	Energy: -1762165.9330703
C          5.13320       -0.51468        0.00000
C          3.92150        0.42286        0.00000
C          2.58153       -0.32395       -0.00000
C          1.36306        0.60911        0.00000
C          0.02770       -0.15338        0.00000
C         -1.16094        0.79527       -0.00000
Br        -2.88312       -0.19150        0.00000
H          5.13283       -1.16318       -0.88471
H          5.13283       -1.16318        0.88471
H          6.07365        0.04785       -0.00000
H          3.96839        1.08240       -0.87821
H          3.96839        1.08240        0.87821
H          2.53318       -0.98383        0.87865
H          2.53318       -0.98383       -0.87865
H          1.40958        1.26786        0.87943
H          1.40958        1.26786       -0.87943
H         -0.03067       -0.80597        0.87972
H         -0.03067       -0.80597       -0.87972
H         -1.19374        1.42429        0.89062
H         -1.19374        1.42429       -0.89062
