20
/scratch/dz1061/gcn/chemGraph/data/deepchem/freesol/split/QM_opt/gjf/3.log	Energy: -148771.4932933
C         -1.00428       -1.19810        0.84692
C         -0.71128       -0.31410       -0.37665
C         -1.81045        0.74713       -0.54596
C          0.71128        0.31410       -0.37666
C          1.81045       -0.74713       -0.54596
C          1.00428        1.19810        0.84692
H         -1.98094       -1.68526        0.74159
H         -1.03265       -0.60932        1.77166
H         -0.25611       -1.98797        0.97533
H         -0.75334       -0.96348       -1.26488
H         -1.87496        1.40813        0.32681
H         -1.62875        1.37434       -1.42735
H         -2.79251        0.27503       -0.66901
H          0.75334        0.96348       -1.26488
H          1.87496       -1.40813        0.32681
H          2.79251       -0.27503       -0.66901
H          1.62875       -1.37434       -1.42735
H          1.98094        1.68526        0.74159
H          1.03265        0.60932        1.77166
H          0.25611        1.98797        0.97533
