12
/scratch/dz1061/gcn/chemGraph/data/deepchem/freesol/split/QM_opt/gjf/30.log	Energy: -1010936.0753255
C          1.29606       -1.47352        0.00000
C         -0.06949       -1.74280        0.00000
C         -1.00304       -0.70399       -0.00000
C         -0.55658        0.62455       -0.00000
C          0.81157        0.90426       -0.00000
C          1.72462       -0.14668       -0.00000
Cl         3.44064        0.21264        0.00000
Cl        -1.67611        1.96358        0.00000
Cl        -2.70354       -1.09697        0.00000
H          2.01699       -2.28327        0.00000
H         -0.42327       -2.76816        0.00000
H          1.15062        1.93322       -0.00000
