14
/scratch/dz1061/gcn/chemGraph/data/deepchem/freesol/split/QM_opt/gjf/303.log	Energy: -387836.6711819
C         -2.21274       -0.24537        0.11851
C         -1.08610        0.69010       -0.32541
C          0.25985        0.45059        0.35842
C          1.31788        1.48283       -0.00928
Cl         0.89917       -1.22602       -0.06924
H         -2.37997       -0.17885        1.20055
H         -1.98074       -1.28689       -0.12286
H         -3.15129        0.01834       -0.38090
H         -1.36597        1.73051       -0.10333
H         -0.94567        0.63070       -1.41212
H          0.12798        0.41008        1.44372
H          0.97911        2.47921        0.30143
H          1.48885        1.49865       -1.09061
H          2.26851        1.27162        0.48786
