23
/scratch/dz1061/gcn/chemGraph/data/deepchem/freesol/split/QM_opt/gjf/305.log	Energy: -696172.4110899
C         -3.95033       -0.15710        0.07312
O         -2.80351       -0.99725       -0.01059
C         -1.57036       -0.39843       -0.03067
C         -1.30878        0.95543        0.04787
C          0.01721        1.42846        0.00786
C          1.06809        0.50605       -0.10421
C          0.81962       -0.87394       -0.19119
C         -0.50867       -1.32044       -0.15853
O         -0.76949       -2.64660       -0.25481
O          1.84515       -1.75260       -0.37686
C          2.13042       -2.62592        0.72460
Cl         2.74297        1.02747       -0.14775
C          0.21613        2.89254        0.09546
O         -0.70315        3.68705        0.20450
H         -4.81311       -0.82457        0.06205
H         -3.94546        0.42344        1.00339
H         -4.00056        0.52591       -0.78326
H         -2.09247        1.69851        0.13954
H         -1.73915       -2.74352       -0.22148
H          1.28586       -3.28925        0.93387
H          2.99483       -3.21683        0.41619
H          2.38484       -2.04817        1.62146
H          1.26277        3.24265        0.05613
