27
/scratch/dz1061/gcn/chemGraph/data/deepchem/freesol/split/QM_opt/gjf/317.log	Energy: -292366.1913499
C         -3.48827       -0.33524        0.06869
C         -2.01333       -0.41423       -0.32364
C         -1.21516       -1.43457        0.52364
C          0.27282       -1.47843        0.15016
C          0.93654       -0.10082        0.30818
C          0.17305        0.94066       -0.56063
C         -1.32040        0.94686       -0.25430
O         -1.90993        1.97001        0.04128
C          2.43266       -0.06031        0.02448
C          3.08227       -1.02616       -0.63420
C          3.16519        1.15464        0.54618
H         -4.02480        0.38340       -0.55717
H         -3.96718       -1.31532       -0.03532
H         -3.59783       -0.00685        1.10775
H         -1.93341       -0.73959       -1.37480
H         -1.32173       -1.17332        1.58660
H         -1.66402       -2.42830        0.40260
H          0.37128       -1.81943       -0.89014
H          0.79502       -2.21443        0.77298
H          0.80312        0.20740        1.35839
H          0.31634        0.67607       -1.61866
H          0.54898        1.95642       -0.41372
H          4.15091       -0.95650       -0.82142
H          2.58980       -1.91756       -1.00951
H          3.05770        1.23921        1.63635
H          2.76977        2.08613        0.12125
H          4.23318        1.10828        0.31329
