26
/scratch/dz1061/gcn/chemGraph/data/deepchem/freesol/split/QM_opt/gjf/319.log	Energy: -929497.1455169
C         -3.27773       -2.42351       -0.31831
O         -2.28015       -1.46444       -0.72932
P         -2.18579       -0.03320       -0.00035
S         -2.08701        0.00040        1.93059
O         -3.40190        0.74621       -0.70497
C         -3.77415        2.07548       -0.29067
O         -0.92942        0.62377       -0.81535
C          0.40656        0.39192       -0.53345
C          1.22614        1.51142       -0.37545
C          2.58757        1.33758       -0.15526
C          3.09964        0.04203       -0.09395
C          2.28723       -1.07993       -0.25172
C          0.92655       -0.90415       -0.47875
N          4.53727       -0.14565        0.14011
O          5.23185        0.86255        0.27032
O          4.96276       -1.29979        0.19127
H         -3.19211       -2.62817        0.75253
H         -3.07575       -3.32804       -0.89295
H         -4.27721       -2.04727       -0.55327
H         -3.94193        2.10767        0.78939
H         -2.99297        2.78777       -0.57202
H         -4.69700        2.30704       -0.82374
H          0.78775        2.50197       -0.42601
H          3.25277        2.18218       -0.02655
H          2.72709       -2.06813       -0.20139
H          0.27150       -1.75554       -0.62117
