33
/scratch/dz1061/gcn/chemGraph/data/deepchem/freesol/split/QM_opt/gjf/322.log	Energy: -529510.1354570
C         -2.84713       -0.87901        2.11228
C         -2.98289       -0.55403        0.61402
C         -2.08684        0.60600        0.18092
C         -2.64818        1.79084       -0.30491
C         -1.83509        2.86795       -0.66915
C         -0.45342        2.76778       -0.55647
C          0.13255        1.57607       -0.09924
C         -0.69185        0.50607        0.27297
C          1.62853        1.54982        0.04583
O          2.23109        2.60310        0.22569
C          2.39143        0.26003       -0.02322
C          3.64135        0.21276        0.61669
C          4.42292       -0.93637        0.55785
C          3.97696       -2.04915       -0.16231
C          2.74819       -2.00483       -0.82179
C          1.95556       -0.85869       -0.75035
C         -2.64736       -1.78185       -0.22425
O         -1.73475       -2.55137       -0.01175
O         -3.48142       -1.91590       -1.28288
H         -3.54746       -1.66939        2.40375
H         -3.06146        0.01216        2.70990
H         -1.83621       -1.22282        2.34579
H         -4.01904       -0.28084        0.39227
H         -3.72872        1.87539       -0.39376
H         -2.28668        3.78512       -1.03729
H          0.19445        3.59889       -0.81448
H         -0.25225       -0.41186        0.64783
H          3.97924        1.09298        1.15388
H          5.38201       -0.96630        1.06786
H          4.58870       -2.94611       -0.21194
H          2.40298       -2.86251       -1.39220
H          1.00784       -0.83214       -1.27733
H         -3.17115       -2.69950       -1.77602
