20
/scratch/dz1061/gcn/chemGraph/data/deepchem/freesol/split/QM_opt/gjf/324.log	Energy: -242426.1108868
C          3.89444        0.31292        0.00001
C          2.64548       -0.57414        0.00000
C          1.34128        0.23242       -0.00000
C          0.09644       -0.65706       -0.00001
C         -1.19928        0.13045       -0.00002
O         -1.29681        1.33820       -0.00000
O         -2.26822       -0.70216       -0.00000
C         -3.55055       -0.05627        0.00002
H          3.91947        0.96089        0.88460
H          3.91947        0.96089       -0.88458
H          4.81095       -0.28782        0.00002
H          2.66630       -1.23551       -0.87814
H          2.66629       -1.23551        0.87815
H          1.31127        0.89377       -0.87503
H          1.31126        0.89377        0.87502
H          0.08470       -1.32329        0.87331
H          0.08470       -1.32329       -0.87333
H         -3.66756        0.56977       -0.88892
H         -3.66753        0.56977        0.88895
H         -4.28593       -0.86168        0.00003
