31
/scratch/dz1061/gcn/chemGraph/data/deepchem/freesol/split/QM_opt/gjf/326.log	Energy: -520666.2990627
C         -3.81278       -0.46732        1.78141
C         -3.31965        0.29040        0.53634
C         -1.80808        0.17406        0.35344
C         -1.20628       -1.04485        0.01202
C          0.17624       -1.13796       -0.11854
C          1.02598       -0.03513        0.08343
C          0.38919        1.16680        0.41797
C         -0.98774        1.28749        0.55174
F          1.13219        2.27671        0.63923
C          2.50011       -0.16312       -0.04316
C          3.28208        0.83801       -0.64510
C          4.65949        0.67756       -0.78434
C          5.28702       -0.48068       -0.32205
C          4.52372       -1.47967        0.28385
C          3.14572       -1.32151        0.42211
C         -4.02114       -0.22949       -0.71259
O         -4.35358       -1.37885       -0.90712
O         -4.21666        0.75106       -1.62595
H         -4.88893       -0.32162        1.92477
H         -3.62866       -1.53973        1.67852
H         -3.29069       -0.10482        2.67210
H         -3.56747        1.35245        0.63013
H         -1.82510       -1.91784       -0.17239
H          0.61931       -2.08580       -0.40968
H         -1.39983        2.25596        0.81864
H          2.80726        1.74057       -1.01280
H          5.24405        1.46111       -1.25930
H          6.36153       -0.60176       -0.42970
H          5.00148       -2.38164        0.65723
H          2.56383       -2.09497        0.91569
H         -4.62784        0.32239       -2.40081
