15
/scratch/dz1061/gcn/chemGraph/data/deepchem/freesol/split/QM_opt/gjf/33.log	Energy: -264058.4066376
C         -2.05276       -1.02094        0.00000
C         -2.30275        0.36269       -0.00000
C         -1.26606        1.28637       -0.00000
C          0.06542        0.84220        0.00000
C          0.33263       -0.55419        0.00000
C         -0.74164       -1.46593        0.00000
C          1.70411       -1.03442        0.00000
O          2.70057       -0.30639       -0.00001
O          1.05007        1.75225        0.00001
H         -2.87711       -1.72687        0.00000
H         -3.32899        0.72086       -0.00000
H         -1.45531        2.35490       -0.00000
H         -0.51952       -2.53120        0.00000
H          1.83408       -2.13457        0.00001
H          1.90794        1.25540        0.00002
