22
/scratch/dz1061/gcn/chemGraph/data/deepchem/freesol/split/QM_opt/gjf/330.log	Energy: -219887.0711327
C         -3.84608       -0.50607        0.00003
C         -2.56389        0.33153        0.00001
C         -1.29792       -0.52788       -0.00003
C          0.00000        0.27542       -0.00006
O          0.00000        1.49279        0.00000
C          1.29792       -0.52788       -0.00003
C          2.56389        0.33153        0.00001
C          3.84608       -0.50607        0.00003
H         -4.73551        0.13392        0.00006
H         -3.90248       -1.15255       -0.88475
H         -3.90243       -1.15257        0.88481
H         -2.54560        0.99347        0.87365
H         -2.54564        0.99349       -0.87362
H         -1.28288       -1.19936        0.87254
H         -1.28293       -1.19934       -0.87262
H          1.28293       -1.19934       -0.87262
H          1.28288       -1.19936        0.87254
H          2.54564        0.99349       -0.87362
H          2.54560        0.99347        0.87365
H          4.73551        0.13392        0.00006
H          3.90243       -1.15257        0.88481
H          3.90248       -1.15255       -0.88475
