16
/scratch/dz1061/gcn/chemGraph/data/deepchem/freesol/split/QM_opt/gjf/333.log	Energy: -168127.1098945
C          0.73692        1.20978       -0.20367
C         -0.73687        1.20981        0.20367
N         -1.37368        0.00003       -0.32455
C         -0.73692       -1.20978        0.20367
C          0.73687       -1.20981       -0.20367
N          1.37368       -0.00003        0.32455
H          1.24039        2.08685        0.21949
H          0.79322        1.27914       -1.30629
H         -0.79317        1.27917        1.30629
H         -1.24030        2.08691       -0.21949
H         -2.36358        0.00005       -0.08800
H         -1.24039       -2.08685       -0.21949
H         -0.79322       -1.27914        1.30629
H          0.79317       -1.27917       -1.30629
H          1.24030       -2.08691        0.21949
H          2.36358       -0.00005        0.08800
