16
/scratch/dz1061/gcn/chemGraph/data/deepchem/freesol/split/QM_opt/gjf/335.log	Energy: -193818.9664338
C         -2.66191       -0.59081        0.15233
C         -1.62706        0.43991       -0.26745
O         -0.35816        0.03004        0.21975
C          0.70117        0.91075       -0.12427
C          1.98788        0.24096        0.33400
O          2.15988       -1.01830       -0.29245
H         -2.69847       -0.67695        1.24307
H         -3.65560       -0.30237       -0.20727
H         -2.41589       -1.57417       -0.26180
H         -1.88119        1.43296        0.13933
H         -1.59527        0.53651       -1.36564
H          0.57077        1.89208        0.36245
H          0.72741        1.06729       -1.21487
H          1.97237        0.14551        1.43211
H          2.84956        0.85896        0.06039
H          1.31212       -1.47868       -0.17390
