13
/scratch/dz1061/gcn/chemGraph/data/deepchem/freesol/split/QM_opt/gjf/337.log	Energy: -190536.1039870
C         -2.36698       -0.03743        0.00000
C         -0.85983       -0.02419       -0.00000
C         -0.13244        1.17842       -0.00000
N          1.20076        1.22077        0.00000
C          1.82571        0.03611        0.00000
C          1.11747       -1.16388       -0.00000
N         -0.22066       -1.20311       -0.00000
H         -2.76997        0.47374        0.88274
H         -2.76997        0.47374       -0.88274
H         -2.72340       -1.06972       -0.00000
H         -0.65123        2.13644       -0.00000
H          2.91371        0.04878        0.00000
H          1.63658       -2.12072       -0.00000
