15
/scratch/dz1061/gcn/chemGraph/data/deepchem/freesol/split/QM_opt/gjf/345.log	Energy: -321263.4298305
C         -1.06053        1.84821        0.00000
C          0.28243        1.48000       -0.00000
C          0.58211        0.11822       -0.00000
C         -0.39305       -0.87205       -0.00000
C         -1.73440       -0.48006       -0.00000
C         -2.06673        0.88087        0.00000
O         -2.66948       -1.47141       -0.00000
N          1.99809       -0.29657       -0.00000
O          2.85142        0.59004       -0.00000
O          2.24223       -1.50214        0.00001
H         -1.33071        2.89988        0.00000
H          1.08174        2.20919       -0.00000
H         -0.12134       -1.91956       -0.00000
H         -3.11243        1.18204        0.00000
H         -3.55635       -1.07868        0.00000
