27
/scratch/dz1061/gcn/chemGraph/data/deepchem/freesol/split/QM_opt/gjf/346.log	Energy: -245303.4898485
C         -5.10300       -0.35266        0.00000
C         -3.82227        0.48819        0.00000
C         -2.54236       -0.35755        0.00000
C         -1.25491        0.47648        0.00000
C          0.02415       -0.37032       -0.00000
C          1.31133        0.46465        0.00000
C          2.58544       -0.38853       -0.00000
C          3.86146        0.44301        0.00000
O          4.97071       -0.45141        0.00000
H         -5.15233       -0.99966       -0.88459
H         -5.15233       -0.99967        0.88459
H         -5.99815        0.27985        0.00000
H         -3.81871        1.14985        0.87802
H         -3.81871        1.14985       -0.87802
H         -2.54643       -1.02024       -0.87841
H         -2.54643       -1.02024        0.87841
H         -1.25184        1.13900        0.87851
H         -1.25184        1.13900       -0.87851
H          0.02216       -1.03249        0.87833
H          0.02216       -1.03249       -0.87834
H          1.31244        1.12662       -0.87887
H          1.31244        1.12662        0.87887
H          2.60078       -1.04516       -0.87996
H          2.60078       -1.04516        0.87996
H          3.88019        1.09788       -0.88772
H          3.88019        1.09788        0.88772
H          5.78087        0.08014       -0.00000
