5
/scratch/dz1061/gcn/chemGraph/data/deepchem/freesol/split/QM_opt/gjf/347.log	Energy: -1178998.8318109
C          0.00000        0.00000        0.00000
Cl         1.03493        1.03493        1.03493
Cl        -1.03493       -1.03493        1.03493
Cl         1.03493       -1.03493       -1.03493
Cl        -1.03493        1.03493       -1.03493
