9
/scratch/dz1061/gcn/chemGraph/data/deepchem/freesol/split/QM_opt/gjf/352.log	Energy:  -97279.6876060
C          0.00000       -0.19531        1.17086
O         -0.00000        0.59015        0.00000
C          0.00000       -0.19531       -1.17086
H          0.89284       -0.84003        1.23166
H         -0.00000        0.49133        2.02160
H         -0.89284       -0.84003        1.23166
H         -0.89284       -0.84003       -1.23166
H          0.89284       -0.84003       -1.23166
H         -0.00000        0.49133       -2.02160
