15
/scratch/dz1061/gcn/chemGraph/data/deepchem/freesol/split/QM_opt/gjf/355.log	Energy: -471792.8263041
C          0.36961       -1.33395        0.00000
C         -0.34998       -0.18771        0.00000
C          0.34067        1.10743        0.00000
O         -0.18640        2.20358       -0.00000
N          1.74641        0.98501        0.00000
C          2.51404       -0.16715       -0.00000
O          3.72775       -0.19071       -0.00000
N          1.73616       -1.33099        0.00000
C         -1.84891       -0.21129       -0.00000
F         -2.30786       -1.49028       -0.00000
F         -2.36179        0.39636        1.08540
F         -2.36178        0.39636       -1.08540
H         -0.10353       -2.30855        0.00000
H          2.26443        1.85715       -0.00000
H          2.26059       -2.19563        0.00000
