17
/scratch/dz1061/gcn/chemGraph/data/deepchem/freesol/split/QM_opt/gjf/358.log	Energy: -252215.3669503
C         -2.41302        0.70042        0.00000
C         -2.39855       -0.71724        0.00000
C         -1.20588       -1.40486        0.00000
C          0.02945       -0.70413        0.00000
C          0.01437        0.72830       -0.00000
C         -1.23215        1.40796       -0.00000
C          1.26653        1.39430       -0.00000
C          2.42394        0.65287        0.00000
C          2.32548       -0.76206       -0.00000
N          1.18824       -1.42753       -0.00000
H         -3.36342        1.22706        0.00000
H         -3.33965       -1.26059       -0.00000
H         -1.16826       -2.48976        0.00000
H         -1.23779        2.49571       -0.00000
H          1.29414        2.48182       -0.00000
H          3.40081        1.12724        0.00000
H          3.23538       -1.36217        0.00000
