16
/scratch/dz1061/gcn/chemGraph/data/deepchem/freesol/split/QM_opt/gjf/367.log	Energy: -308800.5263317
C         -1.01850        1.87789        0.00490
C         -2.03988        0.93127       -0.00083
C         -1.74827       -0.44662       -0.00812
C         -0.40347       -0.84663       -0.00826
C          0.59173        0.12459       -0.00300
C          0.32111        1.49060        0.00390
N          1.99753       -0.32052        0.00113
O          2.21717       -1.53216        0.00552
O          2.87207        0.54518        0.00061
N         -2.76821       -1.39103       -0.07311
H         -1.27151        2.93407        0.01182
H         -3.07810        1.25481       -0.00489
H         -0.12438       -1.89371       -0.01641
H          1.13255        2.20602        0.00949
H         -2.52599       -2.32064        0.24488
H         -3.66815       -1.09042        0.27832
