16
/scratch/dz1061/gcn/chemGraph/data/deepchem/freesol/split/QM_opt/gjf/368.log	Energy: -147210.4102068
C          2.88137        0.49849        0.00001
C          1.69280       -0.46816       -0.00018
C          0.33819        0.24953        0.00013
C         -0.85275       -0.73216        0.00008
C         -2.15379       -0.06179        0.00014
C         -3.21834        0.50868       -0.00015
H          3.83474       -0.04177       -0.00022
H          2.86508        1.14676       -0.88454
H          2.86522        1.14624        0.88495
H          1.75523       -1.12592       -0.87887
H          1.75536       -1.12643        0.87811
H          0.26185        0.90280        0.87898
H          0.26164        0.90321       -0.87840
H         -0.78202       -1.39041        0.87776
H         -0.78198       -1.39038       -0.87764
H         -4.16010        1.00829       -0.00030
