18
/scratch/dz1061/gcn/chemGraph/data/deepchem/freesol/split/QM_opt/gjf/37.log	Energy: -171293.9759597
C          2.23322       -0.32016        0.08625
C          1.08261        0.54265       -0.44359
C         -0.17832        0.56500        0.44439
C         -1.22511        1.54118       -0.11409
C         -0.78300       -0.82805        0.64646
O         -1.12437       -1.37081       -0.62789
H          1.97100       -1.38390        0.09640
H          2.51414       -0.03324        1.10793
H          3.12350       -0.21096       -0.54372
H          1.43426        1.57722       -0.55810
H          0.80001        0.19814       -1.44560
H          0.11782        0.91186        1.44735
H         -0.80394        2.54693       -0.22747
H         -2.09447        1.61471        0.55080
H         -1.58030        1.20703       -1.09431
H         -1.67528       -0.74384        1.28895
H         -0.06501       -1.47958        1.16869
H         -1.52316       -2.24163       -0.48436
