20
/scratch/dz1061/gcn/chemGraph/data/deepchem/freesol/split/QM_opt/gjf/373.log	Energy: -242428.6821144
C         -3.96951       -0.35894        0.00000
C         -2.68276        0.47248        0.00000
C         -1.41543       -0.39290       -0.00000
C         -0.14596        0.44484       -0.00000
O          0.98023       -0.46011       -0.00001
C          2.20371        0.11790       -0.00001
O          2.38030        1.31638        0.00001
C          3.29236       -0.93089        0.00001
H         -4.02387       -1.00453        0.88494
H         -4.85732        0.28307        0.00001
H         -4.02387       -1.00453       -0.88493
H         -2.67426        1.13298        0.87837
H         -2.67427        1.13298       -0.87836
H         -1.41053       -1.04913       -0.88036
H         -1.41053       -1.04913        0.88036
H         -0.08331        1.09068       -0.88294
H         -0.08330        1.09068        0.88294
H          3.19760       -1.57296       -0.88189
H          4.26733       -0.44234        0.00002
H          3.19758       -1.57296        0.88190
