11
/scratch/dz1061/gcn/chemGraph/data/deepchem/freesol/split/QM_opt/gjf/377.log	Energy: -651564.8944190
C          0.00000        1.25282        0.00000
C          0.98195        0.43747        0.83167
Cl         2.11672       -0.53527       -0.20929
C         -0.98195        0.43747       -0.83167
Cl        -2.11672       -0.53527        0.20929
H         -0.55631        1.90479        0.68593
H          0.55631        1.90479       -0.68593
H          1.61209        1.08753        1.44040
H          0.46768       -0.27607        1.47699
H         -1.61209        1.08753       -1.44040
H         -0.46768       -0.27607       -1.47699
