15
/scratch/dz1061/gcn/chemGraph/data/deepchem/freesol/split/QM_opt/gjf/378.log	Energy: -321265.3950489
C         -0.00500       -1.21298       -0.00002
C          1.38420       -1.20429       -0.00000
C          2.07719        0.01547        0.00001
C          1.37312        1.22956       -0.00000
C         -0.01331        1.22264       -0.00002
C         -0.69168        0.00072       -0.00003
N         -2.15402       -0.00704       -0.00005
O         -2.72323       -1.10068        0.00004
O         -2.73424        1.08035        0.00004
O          3.43307        0.08674        0.00003
H         -0.56393       -2.14069       -0.00003
H          1.93386       -2.14305        0.00000
H          1.93170        2.15949        0.00001
H         -0.58178        2.14455       -0.00003
H          3.80640       -0.80905        0.00003
