17
/scratch/dz1061/gcn/chemGraph/data/deepchem/freesol/split/QM_opt/gjf/381.log	Energy: -205147.6606668
C         -1.77370        1.46813        0.00000
C         -0.46807        0.71143       -0.00000
C          0.75633        1.38188       -0.00000
C          1.94817        0.65863        0.00000
C          1.86661       -0.73087        0.00000
N          0.70771       -1.40049       -0.00000
C         -0.43723       -0.70100       -0.00000
C         -1.71178       -1.50977        0.00000
H         -2.38291        1.22616       -0.88028
H         -2.38291        1.22616        0.88028
H         -1.60195        2.54910       -0.00000
H          0.77305        2.46978       -0.00000
H          2.91223        1.15877        0.00000
H          2.76933       -1.34019        0.00000
H         -2.32963       -1.29207        0.88111
H         -1.46349       -2.57281        0.00000
H         -2.32963       -1.29207       -0.88111
