22
/scratch/dz1061/gcn/chemGraph/data/deepchem/freesol/split/QM_opt/gjf/386.log	Energy: -2114747.0450944
C         -2.76152        1.39607       -0.00002
C         -1.56439        0.69769       -0.00005
C         -1.56439       -0.69769       -0.00005
C         -2.76152       -1.39607       -0.00002
C         -3.97419       -0.70034        0.00001
C         -3.97419        0.70034        0.00001
Cl        -5.45733        1.61668        0.00004
Cl        -5.45733       -1.61668        0.00004
O         -0.38914       -1.42029       -0.00008
C          0.77727       -0.69885       -0.00005
C          0.77727        0.69885       -0.00005
C          1.98365        1.40090       -0.00002
C          3.20327        0.70180        0.00001
C          3.20327       -0.70180        0.00001
C          1.98365       -1.40090       -0.00002
Cl         1.92698       -3.13500       -0.00001
Cl         4.69943       -1.58049        0.00005
Cl         4.69943        1.58049        0.00005
Cl         1.92698        3.13500       -0.00001
O         -0.38914        1.42029       -0.00008
H         -2.74569        2.47970       -0.00002
H         -2.74569       -2.47970       -0.00002
