22
/scratch/dz1061/gcn/chemGraph/data/deepchem/freesol/split/QM_opt/gjf/388.log	Energy: -1732721.0791482
C         -4.37099       -0.41097        0.11481
C         -3.59674       -1.43545        0.65282
C         -2.20419       -1.34996        0.64060
C         -1.54598       -0.23704        0.08714
C         -2.34311        0.79041       -0.44516
C         -3.73138        0.70090       -0.42934
Cl        -4.68623        2.00460       -1.11272
C         -0.06549       -0.08030        0.04110
C          0.75295       -1.04285       -0.56040
C          2.12996       -0.85232       -0.63516
C          2.73220        0.30437       -0.11087
C          1.90303        1.26567        0.48826
C          0.52429        1.07707        0.56054
Cl         2.57180        2.72864        1.16805
Cl         4.44925        0.53744       -0.20202
Cl         3.09160       -2.08780       -1.40871
Cl        -1.30625       -2.66197        1.39029
H         -5.45346       -0.47536        0.12211
H         -4.07321       -2.30409        1.09403
H         -1.86417        1.65511       -0.89135
H          0.32530       -1.94232       -0.98599
H         -0.08470        1.83399        1.04184
