17
/scratch/dz1061/gcn/chemGraph/data/deepchem/freesol/split/QM_opt/gjf/389.log	Energy: -194441.0974344
C          3.56398       -0.15868       -0.23967
C          2.14996        0.41469       -0.37042
C          1.13008       -0.31266        0.53076
C         -0.24504        0.27540        0.44216
C         -1.35613       -0.36680        0.04770
C         -2.65375        0.31988       -0.01145
O         -3.69699       -0.20278       -0.35761
H          3.93313       -0.07455        0.78971
H          3.58929       -1.21962       -0.51601
H          4.26688        0.37203       -0.89111
H          2.15918        1.48350       -0.11630
H          1.81526        0.34906       -1.41358
H          1.09989       -1.37914        0.27479
H          1.47856       -0.24648        1.57329
H         -0.33196        1.33045        0.71498
H         -1.34429       -1.41619       -0.24121
H         -2.62466        1.39220        0.29183
