23
/scratch/dz1061/gcn/chemGraph/data/deepchem/freesol/split/QM_opt/gjf/393.log	Energy: -173442.6557472
C          3.50526        0.24379       -0.12686
C          2.22990       -0.50722        0.26905
C          0.94602        0.18602       -0.20683
C         -0.33047       -0.56676        0.19296
C         -1.64649        0.03129       -0.34371
C         -1.92522        1.43657        0.21155
C         -2.82537       -0.90740       -0.04547
H          3.51803        1.25522        0.29794
H          3.58478        0.34302       -1.21656
H          4.40304       -0.27656        0.22618
H          2.19609       -0.62008        1.36215
H          2.26358       -1.52721       -0.13977
H          0.92461        1.20764        0.19671
H          0.97769        0.29151       -1.30199
H         -0.38860       -0.62796        1.29098
H         -0.24974       -1.60466       -0.16272
H         -1.55208        0.11371       -1.43799
H         -2.87099        1.83146       -0.17848
H         -2.00215        1.41444        1.30695
H         -1.13668        2.14905       -0.05311
H         -2.66224       -1.90356       -0.47409
H         -2.96456       -1.02992        1.03682
H         -3.76245       -0.51380       -0.45717
