27
/scratch/dz1061/gcn/chemGraph/data/deepchem/freesol/split/QM_opt/gjf/396.log	Energy: -245304.6430346
C          4.93261        0.54642       -0.00000
C          3.72558       -0.39699        0.00000
C          2.38532        0.34859       -0.00000
C          1.18333       -0.58786        0.00000
O          0.00000        0.19043        0.00000
C         -1.18333       -0.58786       -0.00000
C         -2.38532        0.34859        0.00000
C         -3.72558       -0.39699       -0.00000
C         -4.93261        0.54642        0.00000
H          5.87553       -0.01199       -0.00000
H          4.92798        1.19478        0.88468
H          4.92798        1.19478       -0.88468
H          3.77798       -1.05594        0.87845
H          3.77798       -1.05594       -0.87845
H          2.31844        1.00181       -0.88006
H          2.31844        1.00181        0.88006
H          1.20770       -1.24598       -0.88720
H          1.20770       -1.24598        0.88720
H         -1.20770       -1.24598       -0.88720
H         -1.20770       -1.24598        0.88720
H         -2.31844        1.00181        0.88006
H         -2.31844        1.00181       -0.88006
H         -3.77798       -1.05594        0.87845
H         -3.77798       -1.05594       -0.87845
H         -4.92798        1.19478       -0.88468
H         -5.87553       -0.01199       -0.00000
H         -4.92798        1.19478        0.88468
