11
/scratch/dz1061/gcn/chemGraph/data/deepchem/freesol/split/QM_opt/gjf/399.log	Energy: -145101.6385186
C         -2.38393       -0.50546        0.00000
C         -0.89648       -0.66226        0.00000
C         -0.00000        0.33669        0.00000
C          1.44377        0.06401       -0.00000
O          2.30818        0.92059       -0.00000
H         -2.82575       -0.99291        0.87943
H         -2.68360        0.54667        0.00000
H         -2.82575       -0.99291       -0.87943
H         -0.52043       -1.68784       -0.00000
H         -0.30108        1.38266        0.00000
H          1.71098       -1.01829       -0.00000
