21
/scratch/dz1061/gcn/chemGraph/data/deepchem/freesol/split/QM_opt/gjf/4.log	Energy: -195969.2779574
C         -3.01067       -0.23062       -0.09732
C         -1.63113        0.39986        0.12144
C         -0.48617       -0.50583       -0.34980
C          0.93943       -0.02095        0.00408
C          1.97538       -1.05264       -0.46925
C          1.25151        1.35591       -0.58917
O          1.06130        0.15515        1.42838
H         -3.10925       -1.17462        0.45336
H         -3.81156        0.43648        0.24159
H         -3.18690       -0.44910       -1.15811
H         -1.48595        0.62688        1.18434
H         -1.58779        1.36048       -0.40760
H         -0.61904       -1.50523        0.09592
H         -0.55229       -0.65457       -1.43727
H          1.95473       -1.17361       -1.55861
H          2.98228       -0.74019       -0.17328
H          1.77817       -2.03691       -0.02349
H          1.14407        1.34431       -1.67938
H          2.27861        1.64495       -0.34368
H          0.58215        2.11763       -0.17979
H          0.91216       -0.71210        1.83904
