23
/scratch/dz1061/gcn/chemGraph/data/deepchem/freesol/split/QM_opt/gjf/400.log	Energy: -173440.8036065
C         -2.93051       -0.50606       -0.06740
C         -1.52065       -0.06592       -0.47819
C         -0.59317        0.13143        0.73058
C          0.84454        0.61362        0.42545
C          0.86376        2.03822       -0.15259
C          1.64973       -0.34551       -0.47628
C          1.81495       -1.76617        0.07544
H         -3.57766       -0.64605       -0.94094
H         -3.40475        0.23965        0.58272
H         -2.90527       -1.45436        0.48387
H         -1.09462       -0.81564       -1.15832
H         -1.58888        0.86554       -1.05541
H         -1.05760        0.85793        1.41380
H         -0.54491       -0.81194        1.29199
H          1.36524        0.65144        1.39553
H          0.31277        2.73635        0.48934
H          1.89149        2.40946       -0.24478
H          0.41217        2.07760       -1.15123
H          1.18700       -0.39037       -1.47209
H          2.64586        0.09188       -0.63196
H          2.26158       -1.75259        1.07774
H          2.46883       -2.36359       -0.57025
H          0.85680       -2.29296        0.14796
