16
/scratch/dz1061/gcn/chemGraph/data/deepchem/freesol/split/QM_opt/gjf/402.log	Energy: -193810.0377151
C          2.98107        0.11357       -0.00000
O          1.71990       -0.51902        0.00000
C          0.64661        0.40092        0.00000
C         -0.64661       -0.40092       -0.00000
O         -1.71990        0.51902       -0.00000
C         -2.98107       -0.11357        0.00000
H          3.12099        0.74460        0.89279
H          3.12099        0.74460       -0.89279
H          3.73779       -0.67537       -0.00000
H          0.68034        1.05183        0.88913
H          0.68035        1.05183       -0.88912
H         -0.68035       -1.05183        0.88913
H         -0.68034       -1.05183       -0.88913
H         -3.12099       -0.74460        0.89279
H         -3.73779        0.67537       -0.00000
H         -3.12099       -0.74460       -0.89279
