24
/scratch/dz1061/gcn/chemGraph/data/deepchem/freesol/split/QM_opt/gjf/403.log	Energy: -244419.1008775
C          2.10383       -1.91207        0.34484
C          2.27973       -0.39538        0.46496
C          1.37656        0.42496       -0.48445
C          1.73866        1.92175       -0.42755
C         -0.10841        0.20272       -0.22428
C         -0.69087        0.53490        1.00886
C         -2.05311        0.34174        1.23703
C         -2.86632       -0.18901        0.23307
C         -2.30297       -0.52433       -0.99793
C         -0.93791       -0.32946       -1.21974
H          2.32017       -2.25544       -0.67462
H          2.78167       -2.44142        1.02412
H          1.07980       -2.21598        0.58679
H          3.32531       -0.13177        0.25362
H          2.09275       -0.08334        1.50195
H          1.58124        0.07589       -1.50701
H          2.79291        2.07593       -0.68710
H          1.12630        2.50361       -1.12491
H          1.57953        2.33230        0.57670
H         -0.07398        0.95090        1.80201
H         -2.48096        0.60680        2.20071
H         -3.92801       -0.33922        0.41019
H         -2.92406       -0.93890       -1.78802
H         -0.50775       -0.59428       -2.18341
