22
/scratch/dz1061/gcn/chemGraph/data/deepchem/freesol/split/QM_opt/gjf/404.log	Energy: -266940.3024940
C          2.93490       -0.42090       -0.64367
C          2.35595        0.81351       -0.94788
C          1.16294        1.19751       -0.33655
C          0.52171        0.35977        0.58831
C          1.11608       -0.87333        0.88567
C          2.31101       -1.26327        0.27666
C         -0.78265        0.78290        1.23653
C         -2.00176        0.75425        0.29170
C         -2.36146       -0.64041       -0.20441
O         -3.52689       -0.52100       -1.01595
H          3.86611       -0.72029       -1.11721
H          2.83711        1.48022       -1.65903
H          0.72355        2.16390       -0.57566
H          0.63958       -1.53401        1.60705
H          2.75463       -2.22415        0.52506
H         -0.67862        1.80352        1.62709
H         -0.98293        0.14135        2.10480
H         -2.87369        1.16895        0.81285
H         -1.81914        1.39660       -0.57884
H         -2.54500       -1.30514        0.65774
H         -1.52150       -1.06658       -0.77375
H         -3.72524       -1.39649       -1.38055
