22
/scratch/dz1061/gcn/chemGraph/data/deepchem/freesol/split/QM_opt/gjf/405.log	Energy: -360600.4515114
C         -4.37720        0.41830        0.00003
O         -3.42431       -0.63577        0.00002
C         -2.10233       -0.31667       -0.00000
C         -1.59920        0.99252       -0.00000
C         -0.22165        1.19615       -0.00002
C          0.66880        0.11711       -0.00003
C          0.15348       -1.19107       -0.00003
C         -1.21537       -1.40665       -0.00002
C          2.12303        0.41046       -0.00006
O          2.60625        1.52741        0.00000
O          2.87926       -0.71583        0.00000
C          4.29669       -0.49823        0.00006
H         -4.28202        1.04631        0.89508
H         -4.28204        1.04632       -0.89501
H         -5.35540       -0.06528        0.00004
H         -2.26546        1.84729        0.00001
H          0.18435        2.20256       -0.00002
H          0.83474       -2.03452       -0.00005
H         -1.62955       -2.40987       -0.00002
H          4.74536       -1.49233        0.00010
H          4.60148        0.06077       -0.88897
H          4.60141        0.06080        0.88909
