20
/scratch/dz1061/gcn/chemGraph/data/deepchem/freesol/split/QM_opt/gjf/409.log	Energy: -437174.1569958
C          4.33063       -0.43019        0.00000
C          3.08433        0.46075        0.00000
C          1.77361       -0.33619        0.00000
C          0.52087        0.55011        0.00000
C         -0.78506       -0.25985        0.00000
C         -2.00820        0.64696        0.00000
Cl        -3.56054       -0.30630        0.00000
H          4.35485       -1.07827        0.88471
H          4.35485       -1.07827       -0.88471
H          5.24909        0.16754       -0.00000
H          3.10623        1.12166       -0.87820
H          3.10623        1.12166        0.87820
H          1.75040       -0.99747       -0.87864
H          1.75040       -0.99747        0.87864
H          0.54359        1.21043       -0.87931
H          0.54359        1.21043        0.87931
H         -0.82051       -0.91337       -0.88041
H         -0.82051       -0.91337        0.88041
H         -2.04304        1.28204       -0.88818
H         -2.04304        1.28204        0.88818
