39
/scratch/dz1061/gcn/chemGraph/data/deepchem/freesol/split/QM_opt/gjf/415.log	Energy: -796611.7045970
C         -1.99805       -0.61013       -3.92438
C         -2.38615       -0.54193       -2.44390
C         -2.20990        0.86334       -1.85233
C         -2.67539        1.01281       -0.39831
N         -1.96022        0.15811        0.57033
C         -2.60622        0.08145        1.90620
C         -3.89508       -0.73794        1.91838
C         -0.55729        0.12820        0.54382
C          0.13740       -1.10741        0.54077
C          1.50804       -1.22591        0.35607
C          2.28217       -0.08100        0.17699
C          1.66352        1.16374        0.17110
C          0.28967        1.25056        0.37906
N         -0.23688        2.62119        0.49808
O         -1.05838        2.83911        1.38682
O          0.21679        3.46801       -0.26890
C          3.76291       -0.19991       -0.07778
F          4.42366        0.90257        0.33010
F          4.28697       -1.26280        0.56710
F          4.02501       -0.36137       -1.39227
N         -0.59842       -2.37978        0.63523
O         -1.32434       -2.55753        1.60783
O         -0.39990       -3.19522       -0.26301
H         -0.94664       -0.33459       -4.07276
H         -2.60725        0.07366       -4.52834
H         -2.13521       -1.62105       -4.32342
H         -3.43396       -0.85092       -2.32308
H         -1.79042       -1.26790       -1.87809
H         -1.16521        1.18508       -1.96178
H         -2.79703        1.58074       -2.44204
H         -2.66353        2.07070       -0.09884
H         -3.72091        0.69374       -0.34440
H         -2.79320        1.10539        2.26088
H         -1.88771       -0.37076        2.59104
H         -3.70847       -1.75862        1.57461
H         -4.28105       -0.78370        2.94315
H         -4.68066       -0.29590        1.29666
H          1.95702       -2.21191        0.32615
H          2.23521        2.07365        0.03424
