23
/scratch/dz1061/gcn/chemGraph/data/deepchem/freesol/split/QM_opt/gjf/418.log	Energy: -267098.4478791
C         -4.65404        0.25318       -0.00000
C         -3.35555       -0.55937       -0.00000
C         -2.09652        0.31758        0.00000
C         -0.79531       -0.49567        0.00000
C          0.43886        0.39332        0.00000
O          1.60116       -0.46502        0.00000
C          2.80010        0.16219        0.00000
O          2.92793        1.36686       -0.00000
C          3.93050       -0.84150       -0.00000
H         -4.71823        0.89835        0.88483
H         -5.53352       -0.40054       -0.00000
H         -4.71823        0.89835       -0.88483
H         -3.33576       -1.21989        0.87826
H         -3.33576       -1.21988       -0.87826
H         -2.11655        0.97886        0.87881
H         -2.11655        0.97886       -0.87881
H         -0.76270       -1.15097        0.88036
H         -0.76270       -1.15097       -0.88036
H          0.47519        1.04111       -0.88293
H          0.47519        1.04111        0.88293
H          3.86193       -1.48688        0.88191
H          3.86193       -1.48688       -0.88190
H          4.88482       -0.31373       -0.00000
