14
/scratch/dz1061/gcn/chemGraph/data/deepchem/freesol/split/QM_opt/gjf/42.log	Energy: -180475.2133452
C          2.38688       -0.01984        0.00000
C          0.87668       -0.00434       -0.00000
C          0.16436        1.20492       -0.00000
C         -1.22669        1.17613        0.00000
C         -1.87256       -0.06136        0.00000
C         -1.08298       -1.20919        0.00000
N          0.25689       -1.19534       -0.00000
H          2.79162        0.49088       -0.88269
H          2.74221       -1.05244       -0.00000
H          2.79162        0.49088        0.88269
H          0.70024        2.15072       -0.00000
H         -1.79738        2.10124        0.00000
H         -2.95601       -0.13607        0.00000
H         -1.54479       -2.19577        0.00000
