13
/scratch/dz1061/gcn/chemGraph/data/deepchem/freesol/split/QM_opt/gjf/424.log	Energy: -481337.9238692
C         -0.77608        1.81957        0.00000
C         -1.81063        0.88425        0.00000
C         -1.50529       -0.48114        0.00000
C         -0.17248       -0.90825        0.00000
C          0.83582        0.04933        0.00000
C          0.55905        1.41755        0.00000
Cl         2.51217       -0.48680        0.00000
O         -2.46315       -1.45465       -0.00000
H         -1.01479        2.87947       -0.00000
H         -2.84855        1.21064       -0.00000
H          0.05205       -1.96837        0.00000
H          1.36606        2.14103        0.00000
H         -3.33885       -1.03784        0.00000
