27
/scratch/dz1061/gcn/chemGraph/data/deepchem/freesol/split/QM_opt/gjf/426.log	Energy: -672041.0981836
C         -3.21948        1.64399       -0.24011
C         -1.87708        0.99534       -0.08514
C         -1.61541       -0.33085       -0.00088
C         -0.24513       -0.83359        0.20154
O         -0.01403       -1.98944        0.50982
N          0.79238        0.12182       -0.01487
C          0.53401        1.48536        0.16409
O          1.35714        2.34568        0.43133
N         -0.80006        1.85292       -0.00579
C          2.24138       -0.35942       -0.12929
C          3.09312        0.67514       -0.89816
C          2.79887       -0.58433        1.28419
C          2.29510       -1.65707       -0.96708
Cl        -2.87410       -1.53463       -0.03886
H         -3.41389        2.32817        0.59553
H         -3.25278        2.23075       -1.16629
H         -4.01439        0.89984       -0.26963
H         -0.95473        2.84454        0.12428
H          4.06056        0.21073       -1.11461
H          3.26085        1.59090       -0.33800
H          2.62740        0.93157       -1.85672
H          2.21410       -1.34200        1.81272
H          3.83729       -0.92970        1.22324
H          2.78208        0.34904        1.85544
H          1.79361       -1.51623       -1.93158
H          3.34754       -1.87961       -1.17022
H          1.84863       -2.50971       -0.46301
