13
/scratch/dz1061/gcn/chemGraph/data/deepchem/freesol/split/QM_opt/gjf/430.log	Energy: -203090.7667897
C          1.27228        1.27732        0.02245
C          0.59565       -0.00005       -0.47146
C          1.27267       -1.27710        0.02270
N         -0.84815       -0.00022        0.01517
O         -1.73292       -0.00018       -0.83534
O         -1.02937        0.00016        1.23042
H          1.29720        1.29901        1.11532
H          2.29970        1.30968       -0.35424
H          0.74824        2.16883       -0.33679
H          0.50013       -0.00017       -1.55844
H          1.29759       -1.29858        1.11557
H          2.30009       -1.30923       -0.35399
H          0.74889       -2.16885       -0.33636
