17
/scratch/dz1061/gcn/chemGraph/data/deepchem/freesol/split/QM_opt/gjf/436.log	Energy: -205143.5835947
C         -2.75218        0.08062        0.68373
C         -1.90513       -0.09048       -0.59034
C         -0.41823       -0.02870       -0.32174
C          0.26648        1.18669       -0.21126
C          1.63058        1.18372        0.07175
C          2.27343       -0.04387        0.23695
N          1.64645       -1.22173        0.13311
C          0.33721       -1.19516       -0.13995
H         -2.55259        1.04557        1.16344
H         -2.52673       -0.70539        1.41294
H         -3.82181        0.03266        0.45014
H         -2.17970        0.68822       -1.31363
H         -2.15004       -1.05109       -1.06030
H         -0.26510        2.12606       -0.35083
H          2.18780        2.11217        0.15885
H          3.33879       -0.08513        0.45857
H         -0.14870       -2.16783       -0.22590
