17
/scratch/dz1061/gcn/chemGraph/data/deepchem/freesol/split/QM_opt/gjf/437.log	Energy: -205146.8155295
C          2.54099       -0.98365        0.00002
C          1.21387       -0.26531       -0.00002
C          0.00000       -0.95855       -0.00003
C         -1.21387       -0.26531       -0.00002
C         -1.14179        1.13343        0.00001
N         -0.00000        1.82815       -0.00000
C          1.14179        1.13343        0.00001
C         -2.54099       -0.98365        0.00002
H          2.64972       -1.62573        0.88280
H          3.37507       -0.27478       -0.00072
H          2.64913       -1.62681       -0.88205
H          0.00000       -2.04817       -0.00004
H         -2.05968        1.72169        0.00001
H          2.05968        1.72169        0.00001
H         -2.64913       -1.62682       -0.88205
H         -3.37507       -0.27478       -0.00072
H         -2.64972       -1.62573        0.88280
