20
/scratch/dz1061/gcn/chemGraph/data/deepchem/freesol/split/QM_opt/gjf/440.log	Energy: -276886.1549806
C         -2.94538        0.36915        0.00688
C         -2.69760       -1.02541        0.00299
C         -1.40766       -1.50764       -0.00227
C         -0.29520       -0.62130       -0.00458
C          1.04333       -1.08742       -0.00401
C          2.11286       -0.20710       -0.00758
C          1.85302        1.19482       -0.00730
C          0.56569        1.67091       -0.00127
C         -0.54905        0.78954       -0.00031
C         -1.88969        1.25404        0.00547
N          3.43651       -0.65346       -0.07190
H         -3.96812        0.73595        0.01073
H         -3.53485       -1.71871        0.00380
H         -1.22225       -2.57947       -0.00580
H          1.22530       -2.16071       -0.00531
H          2.69290        1.88621       -0.01936
H          0.38595        2.74365        0.00191
H         -2.07009        2.32697        0.00830
H          3.57733       -1.60796        0.23597
H          4.11635       -0.02921        0.34493
