17
/scratch/dz1061/gcn/chemGraph/data/deepchem/freesol/split/QM_opt/gjf/442.log	Energy: -298737.8844567
C         -2.88431       -1.38512       -0.00018
C         -1.74528       -0.39259        0.00010
C         -1.99718        0.98898        0.00013
C         -0.95596        1.91735        0.00005
C          0.37043        1.48858       -0.00003
C          0.61248        0.11814       -0.00001
C         -0.41647       -0.82270        0.00007
N          2.00654       -0.35739       -0.00001
O          2.19786       -1.57344        0.00021
O          2.89990        0.48940       -0.00024
H         -2.51600       -2.41498        0.00353
H         -3.52056       -1.25925       -0.88457
H         -3.52528       -1.25443        0.88007
H         -3.02642        1.34055        0.00024
H         -1.17702        2.98062        0.00010
H          1.20134        2.18267       -0.00006
H         -0.16616       -1.87697        0.00014
