24
/scratch/dz1061/gcn/chemGraph/data/deepchem/freesol/split/QM_opt/gjf/448.log	Energy: -197336.7545277
C          4.30936       -0.40879        0.12253
C          3.05014        0.46333        0.08936
C          1.75355       -0.34929       -0.02145
C          0.48777        0.51663       -0.05514
C         -0.80744       -0.29755       -0.16535
C         -2.07481        0.57822       -0.19620
C         -3.33899       -0.22253       -0.35113
C         -4.34377       -0.25695        0.52499
H          4.39476       -1.01657       -0.78678
H          5.21703        0.20043        0.20195
H          4.29343       -1.09567        0.97779
H          3.11176        1.16345       -0.75604
H          3.01120        1.08480        0.99539
H          1.69222       -1.05032        0.82433
H          1.79282       -0.97171       -0.92800
H          0.44946        1.13888        0.85139
H          0.54909        1.21748       -0.90117
H         -0.77270       -0.91692       -1.07369
H         -0.87764       -0.99787        0.67837
H         -1.98807        1.28837       -1.03353
H         -2.12965        1.18166        0.71975
H         -3.40842       -0.82626       -1.25844
H         -5.23023       -0.86346        0.35861
H         -4.31991        0.32533        1.44440
