22
/scratch/dz1061/gcn/chemGraph/data/deepchem/freesol/split/QM_opt/gjf/451.log	Energy: -183499.3599400
C         -3.82825       -0.33904       -0.00834
C         -2.54674        0.49997        0.02586
C         -1.26778       -0.34597       -0.01836
C          0.02037        0.48646        0.01617
C          1.29659       -0.36222       -0.03297
C          2.58034        0.46903        0.01120
N          3.76214       -0.39713       -0.08755
H         -3.88140       -0.94430       -0.92176
H         -4.72281        0.29348        0.02423
H         -3.87508       -1.02630        0.84552
H         -2.54586        1.20150       -0.82061
H         -2.53933        1.12025        0.93360
H         -1.26920       -1.04892        0.82822
H         -1.27491       -0.96660       -0.92668
H          0.01916        1.18972       -0.83001
H          0.02628        1.10627        0.92534
H          1.31155       -0.97464       -0.94376
H          1.29636       -1.06770        0.81261
H          2.59816        1.15136       -0.84889
H          2.56625        1.10720        0.91527
H          3.82133       -0.98301        0.74520
H          4.60730        0.17222       -0.08678
