18
/scratch/dz1061/gcn/chemGraph/data/deepchem/freesol/split/QM_opt/gjf/453.log	Energy: -171294.3035968
C         -3.18231        0.22693        0.00000
C         -1.85831       -0.54360       -0.00000
C         -0.62690        0.37162        0.00000
C          0.69932       -0.39835        0.00000
C          1.91947        0.51318        0.00000
O          3.08450       -0.30832        0.00000
H         -4.04110       -0.45395        0.00000
H         -3.26705        0.86998        0.88482
H         -3.26705        0.86998       -0.88482
H         -1.81772       -1.20339       -0.87807
H         -1.81772       -1.20339        0.87807
H         -0.66913        1.03221       -0.87903
H         -0.66913        1.03221        0.87903
H          0.75630       -1.05259       -0.88003
H          0.75630       -1.05259        0.88003
H          1.89689        1.16760       -0.88782
H          1.89689        1.16760        0.88782
H          3.85887        0.27424       -0.00000
