26
/scratch/dz1061/gcn/chemGraph/data/deepchem/freesol/split/QM_opt/gjf/454.log	Energy: -198110.5567570
C          3.55820       -0.29530       -0.54965
C          2.43764       -0.13331        0.48250
C          1.06290        0.12408       -0.15023
C         -0.05304        0.27941        0.89402
C         -1.46917        0.58033        0.34897
C         -1.54611        1.96048       -0.32431
C         -2.02436       -0.51014       -0.59115
C         -2.12445       -1.90877        0.02834
H          3.35866       -1.13836       -1.22277
H          4.52527       -0.47700       -0.06675
H          3.65943        0.60428       -1.16944
H          2.68331        0.69459        1.16290
H          2.38459       -1.03473        1.10981
H          1.12301        1.02585       -0.77535
H          0.82635       -0.70417       -0.83313
H          0.22313        1.08877        1.58591
H         -0.09011       -0.63219        1.50624
H         -2.13294        0.61186        1.22762
H         -0.95374        1.99596       -1.24656
H         -1.17421        2.74966        0.34048
H         -2.58034        2.20867       -0.59131
H         -1.41306       -0.55598       -1.50328
H         -3.02483       -0.19637       -0.92039
H         -2.71660       -1.89166        0.95210
H         -2.60828       -2.60927       -0.66203
H         -1.13935       -2.32049        0.27510
