19
/scratch/dz1061/gcn/chemGraph/data/deepchem/freesol/split/QM_opt/gjf/456.log	Energy: -242281.3186215
C          2.53757       -1.00118       -0.00000
C          1.07873       -0.60845        0.00000
C          0.08144       -1.58672        0.00000
C         -1.27528       -1.25970        0.00000
C         -1.65177        0.08336        0.00000
C         -0.66915        1.07782       -0.00000
C          0.68732        0.74963       -0.00000
C          1.72292        1.84985        0.00000
O         -2.96054        0.49097        0.00000
H          3.06760       -0.61357        0.88031
H          2.65037       -2.08993        0.00000
H          3.06760       -0.61357       -0.88031
H          0.36926       -2.63576        0.00000
H         -2.03061       -2.04385        0.00000
H         -0.98518        2.11717       -0.00000
H          1.25192        2.83724       -0.00000
H          2.37652        1.79026        0.88008
H          2.37653        1.79026       -0.88008
H         -3.53030       -0.29368        0.00000
