16
/scratch/dz1061/gcn/chemGraph/data/deepchem/freesol/split/QM_opt/gjf/457.log	Energy: -506010.3731662
C         -1.16275        2.14112        0.00000
C         -0.27222        0.92458       -0.00000
C          1.11821        1.06268        0.00000
C          1.96439       -0.05024        0.00000
C          1.42158       -1.33744        0.00000
C          0.03692       -1.49762        0.00000
C         -0.79289       -0.38048        0.00000
Cl        -2.54029       -0.63179        0.00000
O          3.31092        0.18828       -0.00000
H         -1.81722        2.15494        0.87926
H         -0.56694        3.05799       -0.00000
H         -1.81723        2.15494       -0.87926
H          1.56523        2.05222       -0.00000
H          2.07025       -2.21109       -0.00000
H         -0.39844       -2.49132       -0.00000
H          3.78240       -0.65914        0.00000
