18
/scratch/dz1061/gcn/chemGraph/data/deepchem/freesol/split/QM_opt/gjf/46.log	Energy: -568721.7052071
C          0.69540        2.92865        0.01558
C         -0.69540        2.92865       -0.01558
C         -1.38693        1.71780       -0.03181
C         -0.70511        0.49872       -0.02043
C          0.70511        0.49872        0.02042
C          1.38693        1.71780        0.03181
C          1.53914       -0.76853       -0.00549
F          1.07853       -1.70554        0.84571
F          1.57465       -1.31604       -1.23812
F          2.82109       -0.51597        0.34630
C         -1.53914       -0.76853        0.00549
F         -1.57465       -1.31604        1.23812
F         -1.07853       -1.70554       -0.84571
F         -2.82110       -0.51597       -0.34630
H          1.24712        3.86394        0.02776
H         -1.24712        3.86394       -0.02776
H         -2.46982        1.71424       -0.05870
H          2.46982        1.71424        0.05870
