35
/scratch/dz1061/gcn/chemGraph/data/deepchem/freesol/split/QM_opt/gjf/460.log	Energy: -667989.0999641
C          4.28627       -1.83391        0.96923
C          3.96792       -1.29848       -0.43106
N          3.31705        0.00283       -0.42522
C          1.98362        0.19987       -0.27397
N          1.17450       -0.86742       -0.25296
C         -0.13596       -0.57156       -0.13152
N         -0.65123        0.67430       -0.02146
C          0.27403        1.63795       -0.04703
N          1.58963        1.49170       -0.16955
S         -0.23207        3.33525        0.09432
C         -2.04448        3.18939        0.24569
N         -0.96614       -1.64379       -0.11949
C         -2.43776       -1.69847        0.00080
C         -3.10525       -0.96420       -1.17759
C         -2.89374       -1.10198        1.34600
C         -2.80430       -3.19152       -0.05006
H          4.78504       -2.80820        0.90240
H          4.94685       -1.15043        1.51503
H          3.36484       -1.95704        1.54670
H          3.30720       -1.99255       -0.95601
H          4.88591       -1.20378       -1.02229
H          3.87502        0.84118       -0.34149
H         -2.32012        2.62006        1.13490
H         -2.41708        4.21355        0.33542
H         -2.47595        2.71877       -0.63926
H         -0.47144       -2.52082       -0.20907
H         -2.79788       -1.40855       -2.13090
H         -2.82490        0.09107       -1.18063
H         -4.19619       -1.03835       -1.09944
H         -2.43732       -1.64465        2.18142
H         -2.60640       -0.05097        1.41684
H         -3.98325       -1.17615        1.44207
H         -3.88811       -3.31646        0.03401
H         -2.33658       -3.74176        0.77551
H         -2.48518       -3.64485       -0.99648
