14
/scratch/dz1061/gcn/chemGraph/data/deepchem/freesol/split/QM_opt/gjf/465.log	Energy: -193085.0065892
C          1.91917       -0.83227       -0.25193
C          0.67433        0.04263       -0.27634
C          0.89925        1.44522        0.27823
O         -0.31757       -0.65040        0.54737
C         -1.60935       -0.42089        0.27257
O         -2.04793        0.30780       -0.58537
H          2.30511       -0.93092        0.76858
H          1.69999       -1.83324       -0.63644
H          2.70213       -0.38648       -0.87491
H          0.26533        0.10653       -1.28891
H          1.24698        1.39819        1.31621
H         -0.02477        2.02840        0.23874
H          1.65836        1.96591       -0.31628
H         -2.22948       -1.01576        0.96184
