12
/scratch/dz1061/gcn/chemGraph/data/deepchem/freesol/split/QM_opt/gjf/467.log	Energy: -548696.5525586
C          0.06347       -1.40303        0.00000
C          0.85364       -0.30637        0.00000
C          0.26106        1.04023        0.00001
O          0.86349        2.09506       -0.00001
N         -1.14809        1.00780        0.00000
C         -1.99827       -0.08905        0.00000
O         -3.21129       -0.01739       -0.00001
N         -1.30783       -1.29976        0.00000
Cl         2.58369       -0.43562       -0.00000
H          0.46692       -2.40876       -0.00000
H         -1.60597        1.91283       -0.00000
H         -1.88919       -2.12676       -0.00000
