17
/scratch/dz1061/gcn/chemGraph/data/deepchem/freesol/split/QM_opt/gjf/469.log	Energy: -124103.2574827
C         -2.10160       -0.03266       -0.11362
C         -0.76446       -0.66474        0.28958
C          0.48269       -0.00269       -0.32976
C          1.74225       -0.82166       -0.01070
C          0.65952        1.45504        0.12179
H         -2.19086        1.00093        0.23847
H         -2.22159       -0.02335       -1.20441
H         -2.94317       -0.59509        0.30684
H         -0.66704       -0.65008        1.38565
H         -0.77363       -1.72533        0.00132
H          0.34924       -0.00329       -1.42326
H          1.64855       -1.85493       -0.36606
H          2.63198       -0.38460       -0.47953
H          1.92226       -0.85759        1.07196
H         -0.19475        2.08048       -0.15865
H          1.55517        1.89923       -0.32869
H          0.77348        1.51392        1.21262
