17
/scratch/dz1061/gcn/chemGraph/data/deepchem/freesol/split/QM_opt/gjf/470.log	Energy: -274934.5597708
C          3.91685       -0.27363       -0.00000
C          2.60060        0.51005        0.00000
C          1.36895       -0.40724       -0.00000
C          0.07185        0.39094        0.00000
O         -0.99765       -0.58606       -0.00000
N         -2.29249       -0.02189       -0.00000
O         -3.16647       -0.85520        0.00000
O         -2.37861        1.19081       -0.00000
H          3.99565       -0.91608       -0.88507
H          3.99565       -0.91608        0.88507
H          4.77869        0.40240        0.00000
H          2.56591        1.16860        0.87885
H          2.56591        1.16860       -0.87885
H          1.38802       -1.06073       -0.88110
H          1.38802       -1.06073        0.88110
H         -0.01905        1.02505       -0.88774
H         -0.01905        1.02505        0.88774
