13
/scratch/dz1061/gcn/chemGraph/data/deepchem/freesol/split/QM_opt/gjf/496.log	Energy: -122540.6930245
C          2.35110       -0.01324        0.00013
C          0.90855       -0.52530       -0.00013
C         -0.12030        0.62546       -0.00005
C         -1.50779        0.15987       -0.00012
C         -2.64635       -0.24313        0.00013
H          2.55567        0.60119        0.88553
H          3.06461       -0.84451       -0.00001
H          2.55583        0.60162       -0.88494
H          0.73259       -1.15801       -0.87854
H          0.73238       -1.15837        0.87797
H          0.05027        1.26525       -0.87774
H          0.05030        1.26517        0.87772
H         -3.65293       -0.59431        0.00023
