24
/scratch/dz1061/gcn/chemGraph/data/deepchem/freesol/split/QM_opt/gjf/5.log	Energy: -197355.1038326
C         -2.36307       -0.67616       -0.19166
C         -0.86162       -0.51636       -0.46323
C         -0.01709       -1.40653        0.46997
C          1.48419       -1.31227        0.15621
C          1.97407        0.14314        0.17571
C          1.12595        1.02641       -0.75351
C         -0.38478        0.96220       -0.43352
C         -0.72496        1.70663        0.87018
H         -2.61724       -0.43163        0.84644
H         -2.68239       -1.70984       -0.37113
H         -2.95898       -0.02501       -0.84350
H         -0.67789       -0.87095       -1.49064
H         -0.35451       -2.44829        0.38301
H         -0.19308       -1.11657        1.51626
H          2.05998       -1.91965        0.86657
H          1.66939       -1.73990       -0.84061
H          3.02891        0.19242       -0.12395
H          1.92895        0.52983        1.20337
H          1.47205        2.06776       -0.70772
H          1.28035        0.69343       -1.79055
H         -0.91443        1.48612       -1.24363
H         -0.34690        2.73533        0.82891
H         -1.80656        1.76206        1.03227
H         -0.28379        1.23246        1.75390
