10
/scratch/dz1061/gcn/chemGraph/data/deepchem/freesol/split/QM_opt/gjf/50.log	Energy:  -97886.5446980
C         -1.84873       -0.10908       -0.00000
C         -0.60879        0.40042        0.00000
C          0.60879       -0.40042        0.00000
C          1.84873        0.10908        0.00000
H         -2.02285       -1.18299       -0.00000
H         -2.72890        0.52670        0.00000
H         -0.47420        1.48261        0.00000
H          0.47420       -1.48261        0.00000
H          2.72890       -0.52670       -0.00000
H          2.02285        1.18299       -0.00000
