12
/scratch/dz1061/gcn/chemGraph/data/deepchem/freesol/split/QM_opt/gjf/503.log	Energy: -308782.3498084
C         -1.70085       -1.04775        0.02057
C         -0.82951        0.10857       -0.44606
C          0.62548       -0.05816       -0.00685
F          1.20124       -1.11410       -0.62050
F          0.75625       -0.22917        1.31984
F          1.33913        1.04899       -0.34453
O         -1.36024        1.30465        0.09207
H         -2.72351       -0.89499       -0.33384
H         -1.71180       -1.09078        1.11312
H         -1.32675       -1.99767       -0.37182
H         -0.80297        0.14064       -1.54697
H         -0.79332        2.03824       -0.19626
