15
/scratch/dz1061/gcn/chemGraph/data/deepchem/freesol/split/QM_opt/gjf/505.log	Energy: -321269.8190214
C          1.90513       -1.41545       -0.00000
C          2.55561       -0.16878       -0.00001
C          1.83418        1.01347       -0.00000
C          0.42742        0.99762        0.00000
C         -0.21671       -0.26557        0.00000
C          0.52337       -1.45910        0.00000
N         -1.66045       -0.36193        0.00001
O         -2.18743       -1.46863        0.00001
O         -2.32658        0.69978       -0.00003
O         -0.21080        2.17263        0.00001
H          2.47906       -2.33613       -0.00001
H          3.64134       -0.12746       -0.00001
H          2.32425        1.98140       -0.00000
H         -0.01867       -2.39681        0.00000
H         -1.17841        1.96909        0.00002
