21
/scratch/dz1061/gcn/chemGraph/data/deepchem/freesol/split/QM_opt/gjf/506.log	Energy: -266823.1019493
C          1.93198        2.09920       -0.00000
C          1.41042        0.68180       -0.00000
C          2.28842       -0.38380        0.00000
C          1.83486       -1.72471        0.00000
C          0.48877       -1.99906        0.00000
C         -0.46000       -0.94122       -0.00000
C          0.00063        0.41800       -0.00000
C         -0.97176        1.45572        0.00000
C         -2.32039        1.17223        0.00000
C         -2.77001       -0.16876       -0.00000
C         -1.85693       -1.19874       -0.00000
H          3.02596        2.10971       -0.00000
H          1.59390        2.65809       -0.88196
H          1.59390        2.65809        0.88196
H          3.35838       -0.18879       -0.00000
H          2.56028       -2.53392        0.00000
H          0.13006       -3.02570        0.00000
H         -0.64447        2.49061        0.00000
H         -3.04444        1.98274        0.00000
H         -3.83562       -0.38185       -0.00000
H         -2.19383       -2.23300       -0.00000
