14
/scratch/dz1061/gcn/chemGraph/data/deepchem/freesol/split/QM_opt/gjf/510.log	Energy: -133397.0473536
C         -0.77872        1.02938       -0.05686
C          0.77873        1.02937       -0.05687
C          1.16147       -0.44847        0.17208
N         -0.00001       -1.17014       -0.35611
C         -1.16148       -0.44845        0.17208
H         -1.19977        1.67790        0.71758
H         -1.16096        1.37781       -1.02097
H          1.19980        1.67789        0.71756
H          1.16097        1.37778       -1.02099
H          2.07484       -0.74321       -0.35636
H          1.32536       -0.62814        1.25222
H         -0.00002       -2.14865       -0.07465
H         -1.32538       -0.62813        1.25221
H         -2.07485       -0.74318       -0.35638
