15
/scratch/dz1061/gcn/chemGraph/data/deepchem/freesol/split/QM_opt/gjf/511.log	Energy: -264051.0513945
C          0.42909       -1.06011        0.00007
C         -0.95025       -1.20648        0.00003
C         -1.77177       -0.06722       -0.00002
C         -1.20562        1.21496       -0.00002
C          0.17632        1.34732        0.00003
C          1.00985        0.21801        0.00008
C          2.47505        0.37243        0.00014
O          3.27394       -0.54705       -0.00016
O         -3.13021       -0.14744       -0.00006
H          1.08327       -1.92668        0.00011
H         -1.39973       -2.19799        0.00003
H         -1.86230        2.07873       -0.00005
H          0.62181        2.34004        0.00003
H          2.82756        1.42888       -0.00020
H         -3.39656       -1.08054       -0.00006
