19
/scratch/dz1061/gcn/chemGraph/data/deepchem/freesol/split/QM_opt/gjf/516.log	Energy: -218993.3591293
C          0.04755       -2.25658       -0.69901
C          0.04755       -2.25658        0.69901
C         -0.00494       -1.05151        1.40660
C         -0.05276        0.14945        0.70121
C         -0.05276        0.14945       -0.70121
C         -0.00494       -1.05151       -1.40660
C         -0.13008        1.56780       -1.23007
C          0.26905        2.42187        0.00000
C         -0.13008        1.56780        1.23007
H          0.09400       -3.19869       -1.23927
H          0.09400       -3.19869        1.23927
H         -0.00101       -1.05558        2.49444
H         -0.00101       -1.05558       -2.49444
H          0.51728        1.74394       -2.09686
H         -1.15676        1.79979       -1.55078
H          1.35610        2.56663        0.00000
H         -0.19462        3.41328        0.00000
H         -1.15676        1.79979        1.55078
H          0.51728        1.74394        2.09686
