33
/scratch/dz1061/gcn/chemGraph/data/deepchem/freesol/split/QM_opt/gjf/517.log	Energy: -493137.8058172
C         -4.80220        0.95346        0.67161
C         -3.64064        0.16720        0.10515
C         -3.89276       -0.99314       -0.63447
C         -2.84689       -1.73410       -1.18250
C         -1.53346       -1.31693       -1.00360
C         -1.25791       -0.16753       -0.24736
C         -2.31018        0.58514        0.31922
C         -2.00708        1.82521        1.12896
N          0.06933        0.30092       -0.09808
C          1.21055       -0.43264        0.12373
C          1.16033       -1.78159        0.54862
C          2.31947       -2.50204        0.78272
C          3.58473       -1.92118        0.61085
C          3.65894       -0.59636        0.21734
C          2.50090        0.16939       -0.02661
C          2.63280        1.57879       -0.41519
O          1.71193        2.37769       -0.57670
O          3.91561        1.98566       -0.59506
H         -5.75569        0.51652        0.35999
H         -4.79068        0.96973        1.76935
H         -4.78933        1.99871        0.33899
H         -4.92069       -1.31255       -0.78707
H         -3.05646       -2.62435       -1.76950
H         -0.71575       -1.86010       -1.46576
H         -2.01141        2.73227        0.50726
H         -2.74587        1.97957        1.92051
H         -1.02105        1.76046        1.59725
H          0.24540        1.28680       -0.27873
H          0.19453       -2.24477        0.71103
H          2.23780       -3.53396        1.11538
H          4.48811       -2.49433        0.79338
H          4.62340       -0.11752        0.09327
H          3.85265        2.92818       -0.83554
