21
/scratch/dz1061/gcn/chemGraph/data/deepchem/freesol/split/QM_opt/gjf/52.log	Energy: -229962.2117000
C         -4.08522       -0.18320       -0.06431
C         -2.73567        0.46823        0.25398
C         -1.53541       -0.39923       -0.14683
C         -0.18531        0.25610        0.16511
C          1.01180       -0.61294       -0.23463
C          2.34447        0.11491       -0.05767
O          2.46501        1.32372       -0.19439
N          3.40730       -0.68822        0.26418
H         -4.18602       -0.38250       -1.13842
H         -4.19793       -1.13994        0.46076
H         -4.92060        0.46037        0.23421
H         -2.66602        1.43821       -0.25794
H         -2.67931        0.68822        1.32947
H         -1.60436       -1.37033        0.36683
H         -1.59340       -0.62166       -1.22322
H         -0.12332        0.48273        1.23834
H         -0.09890        1.21780       -0.35282
H          1.01279       -1.55704        0.32662
H          0.93029       -0.88536       -1.29765
H          3.33961       -1.69465        0.25794
H          4.32805       -0.27137        0.26784
