22
/scratch/dz1061/gcn/chemGraph/data/deepchem/freesol/split/QM_opt/gjf/520.log	Energy: -961163.4648053
C         -4.85993       -0.69744        0.00000
C         -4.85993        0.69744        0.00000
C         -3.65116        1.39760        0.00000
C         -2.44981        0.69918       -0.00000
C         -2.44981       -0.69918       -0.00000
C         -3.65116       -1.39760        0.00000
O         -1.27302       -1.42803       -0.00000
C         -0.10638       -0.70018       -0.00000
C          1.09569       -1.39319       -0.00000
C          2.30923       -0.69953        0.00000
C          2.30923        0.69953        0.00000
C          1.09569        1.39319       -0.00000
C         -0.10638        0.70018       -0.00000
O         -1.27302        1.42803       -0.00000
Cl         3.79372        1.61890        0.00000
Cl         3.79372       -1.61890        0.00000
H         -5.79633       -1.24669        0.00000
H         -5.79633        1.24669        0.00000
H         -3.61978        2.48254        0.00000
H         -3.61978       -2.48254        0.00000
H          1.08115       -2.47689       -0.00000
H          1.08115        2.47689       -0.00000
