17
/scratch/dz1061/gcn/chemGraph/data/deepchem/freesol/split/QM_opt/gjf/521.log	Energy: -274935.0717935
C         -1.95617        1.37949        0.47343
C         -1.69761        0.10605       -0.34366
C         -2.82471       -0.92231       -0.16084
C         -0.36552       -0.54826        0.02477
O          0.67232        0.40725       -0.30649
N          1.97958       -0.03105       -0.00143
O          2.10282       -1.13581        0.49058
O          2.82469        0.78354       -0.28554
H         -2.90234        1.84325        0.17353
H         -1.15780        2.11411        0.33354
H         -2.02245        1.14901        1.54467
H         -1.64508        0.37629       -1.40720
H         -3.78777       -0.48719       -0.44795
H         -2.90418       -1.24120        0.88609
H         -2.66376       -1.81588       -0.77505
H         -0.31295       -0.78169        1.09371
H         -0.19521       -1.46902       -0.54193
