16
/scratch/dz1061/gcn/chemGraph/data/deepchem/freesol/split/QM_opt/gjf/525.log	Energy: -217599.7493599
C          2.29192       -0.00000        0.20593
C          1.60354       -1.20816        0.07707
C          0.23205       -1.20609       -0.17956
C         -0.46984        0.00000       -0.31436
C          0.23206        1.20609       -0.17956
C          1.60354        1.20816        0.07707
C         -1.96542        0.00000       -0.52583
O         -2.70132       -0.00000        0.70428
H          3.36076       -0.00000        0.40236
H          2.13517       -2.15124        0.17261
H         -0.30213       -2.14802       -0.28308
H         -0.30213        2.14802       -0.28308
H          2.13517        2.15124        0.17262
H         -2.26268       -0.88545       -1.10417
H         -2.26268        0.88546       -1.10416
H         -2.05812       -0.00001        1.42806
