18
/scratch/dz1061/gcn/chemGraph/data/deepchem/freesol/split/QM_opt/gjf/529.log	Energy: -195083.0210400
C         -2.53002       -1.03299        0.01050
C         -1.22490       -0.27014       -0.01006
C         -1.20974        1.13022       -0.00059
C          0.00000        1.82433        0.00483
C          1.20974        1.13022       -0.00059
C          1.22490       -0.27014       -0.01006
C         -0.00000       -0.94842       -0.01932
C          2.53002       -1.03299        0.01050
H         -2.43997       -1.99680       -0.50216
H         -2.85346       -1.24196        1.03924
H         -3.33348       -0.46652       -0.47251
H         -2.14960        1.67797       -0.00349
H          0.00000        2.91154        0.00433
H          2.14960        1.67797       -0.00349
H         -0.00000       -2.03744       -0.03770
H          2.85346       -1.24195        1.03924
H          3.33348       -0.46652       -0.47251
H          2.43996       -1.99681       -0.50216
