12
/scratch/dz1061/gcn/chemGraph/data/deepchem/freesol/split/QM_opt/gjf/53.log	Energy: -272786.0366612
C          2.09361        0.29507        0.38536
C          0.69401        0.81429        0.08435
O         -0.17496       -0.32529        0.29730
N         -1.53805       -0.08762       -0.01381
O         -2.22704       -1.06591        0.13962
O         -1.83955        1.03005       -0.37790
O          2.51369       -0.69355       -0.53400
H          2.79443        1.13075        0.28962
H          2.13751       -0.06256        1.42557
H          0.40640        1.62970        0.75571
H          0.61270        1.14624       -0.95375
H          1.91241       -1.44931       -0.43886
