12
/scratch/dz1061/gcn/chemGraph/data/deepchem/freesol/split/QM_opt/gjf/530.log	Energy: -324628.0512064
C          2.42860        0.07285        0.00877
C          1.01159       -0.50871       -0.06966
C         -0.06310        0.57018        0.07930
S         -1.79423       -0.04494       -0.07417
H          2.60265        0.80572       -0.78835
H          2.60216        0.57651        0.96748
H          3.18199       -0.71595       -0.09403
H          0.87873       -1.26303        0.71750
H          0.86784       -1.02874       -1.02416
H          0.04354        1.10415        1.02956
H          0.02808        1.31536       -0.71888
H         -1.75991       -0.88093        0.98708
