16
/scratch/dz1061/gcn/chemGraph/data/deepchem/freesol/split/QM_opt/gjf/532.log	Energy: -170538.6499021
C          0.00000        1.45025        0.23338
C          1.25965        0.69690       -0.22224
C          1.17980       -0.77233        0.20168
O         -0.00000       -1.39979       -0.28729
C         -1.17981       -0.77233        0.20168
C         -1.25965        0.69690       -0.22224
H          0.00000        2.47705       -0.15200
H          0.00000        1.52486        1.33097
H          2.16564        1.15547        0.19514
H          1.34402        0.74315       -1.31607
H          2.01711       -1.35145       -0.20025
H          1.21337       -0.84711        1.30405
H         -2.01712       -1.35145       -0.20025
H         -1.21337       -0.84711        1.30405
H         -2.16564        1.15547        0.19514
H         -1.34402        0.74315       -1.31607
