20
/scratch/dz1061/gcn/chemGraph/data/deepchem/freesol/split/QM_opt/gjf/533.log	Energy: -242429.3565873
C          3.82640        0.14999        0.00003
C          2.50098       -0.61896        0.00001
C          1.30224        0.31747       -0.00001
O          0.10801       -0.49442       -0.00003
C         -1.06680        0.17733       -0.00004
O         -1.14763        1.38664       -0.00001
C         -2.23910       -0.78634       -0.00001
C         -3.59043       -0.07446        0.00004
H          4.67766       -0.53874        0.00004
H          3.91707        0.79100       -0.88515
H          3.91705        0.79100        0.88520
H          2.44226       -1.27152       -0.87995
H          2.44224       -1.27152        0.87997
H          1.29286        0.96649        0.88301
H          1.29289        0.96649       -0.88303
H         -2.13215       -1.44292        0.87312
H         -2.13220       -1.44292       -0.87314
H         -3.69679        0.56442       -0.88162
H         -4.40684       -0.80410        0.00006
H         -3.69674        0.56442        0.88170
