16
/scratch/dz1061/gcn/chemGraph/data/deepchem/freesol/split/QM_opt/gjf/535.log	Energy: -147244.0282968
C         -0.69802       -1.19227       -0.31877
C          0.69802       -1.19227        0.31877
C          1.49892        0.04784       -0.11073
C          0.66608        1.30606       -0.05692
C         -0.66608        1.30606        0.05692
C         -1.49892        0.04784        0.11073
H         -1.24430       -2.10614       -0.05462
H         -0.59258       -1.19178       -1.41268
H          0.59258       -1.19178        1.41268
H          1.24430       -2.10614        0.05462
H          1.88899       -0.09021       -1.13211
H          2.38687        0.16379        0.52649
H          1.19965        2.25459       -0.11247
H         -1.19965        2.25459        0.11247
H         -2.38687        0.16379       -0.52649
H         -1.88899       -0.09021        1.13211
