22
/scratch/dz1061/gcn/chemGraph/data/deepchem/freesol/split/QM_opt/gjf/536.log	Energy: -2021114.3285746
C          1.74131       -1.00788       -1.19854
C          3.12608       -1.06942       -1.30112
C          3.93501       -0.27751       -0.48173
C          3.33876        0.58632        0.44491
C          1.94747        0.64860        0.54084
C          1.13350       -0.14745       -0.27274
C         -0.34790       -0.01048       -0.18086
C         -0.90869        1.25758       -0.36584
C         -2.28192        1.46669       -0.29976
C         -3.14939        0.39604       -0.04483
C         -2.60579       -0.88720        0.15328
C         -1.21554       -1.08480        0.08883
Cl        -0.56260       -2.67451        0.39856
Cl        -3.66376       -2.22328        0.49047
Cl        -4.86398        0.65013        0.02731
Cl        -2.88762        3.08206       -0.55383
Cl         4.29501        1.59869        1.49849
Cl         5.66838       -0.39093       -0.64380
H          1.13133       -1.62370       -1.85055
H          3.59511       -1.72991       -2.02235
H          1.50372        1.31618        1.27168
H         -0.25966        2.09746       -0.58563
