17
/scratch/dz1061/gcn/chemGraph/data/deepchem/freesol/split/QM_opt/gjf/538.log	Energy: -205147.0633267
C          1.74877        1.50905        0.00000
C          0.46478        0.71791       -0.00000
C         -0.77724        1.35803        0.00000
C         -1.94772        0.60021        0.00000
N         -1.95838       -0.73657        0.00000
C         -0.76626       -1.34404       -0.00000
C          0.47124       -0.69114       -0.00000
C          1.75423       -1.48388        0.00000
H          1.55159        2.58504        0.00000
H          2.36207        1.27782        0.88028
H          2.36207        1.27782       -0.88028
H         -0.83301        2.44386        0.00000
H         -2.92029        1.09039        0.00000
H         -0.79073       -2.43426       -0.00000
H          2.37010       -1.26127        0.88102
H          1.54997       -2.55902       -0.00000
H          2.37010       -1.26127       -0.88101
