25
/scratch/dz1061/gcn/chemGraph/data/deepchem/freesol/split/QM_opt/gjf/54.log	Energy: -244556.3505757
C         -4.74523        0.35427        0.00000
C         -3.48369       -0.51516       -0.00000
C         -2.18566        0.30254        0.00000
C         -0.91701       -0.56019       -0.00000
C          0.37588        0.26479        0.00000
C          1.63712       -0.60078       -0.00000
C          2.93820        0.19558       -0.00000
O          2.94939        1.41209       -0.00000
C          4.22788       -0.61104        0.00000
H         -4.77985        1.00209        0.88460
H         -5.65416       -0.25825        0.00000
H         -4.77985        1.00209       -0.88460
H         -3.49503       -1.17653        0.87818
H         -3.49503       -1.17652       -0.87818
H         -2.17407        0.96479        0.87834
H         -2.17407        0.96479       -0.87834
H         -0.92989       -1.22288       -0.87855
H         -0.92989       -1.22288        0.87854
H          0.39721        0.92743        0.87413
H          0.39721        0.92743       -0.87412
H          1.65098       -1.27277       -0.87230
H          1.65098       -1.27277        0.87229
H          4.27459       -1.26336        0.88108
H          5.08622        0.06391       -0.00000
H          4.27459       -1.26336       -0.88108
