20
/scratch/dz1061/gcn/chemGraph/data/deepchem/freesol/split/QM_opt/gjf/541.log	Energy: -452505.3320040
C          0.00312        2.33690        0.89498
O          0.55135        1.49100       -0.12248
C          0.35575        0.12036       -0.02907
C         -1.12535       -0.24827       -0.37128
F         -1.54863        0.41426       -1.45639
F         -1.93725        0.08038        0.65970
F         -1.27998       -1.56672       -0.60005
O          1.10514       -0.50550       -1.00974
C          2.48998       -0.13889       -1.05332
O          0.69912       -0.27030        1.27172
C          0.62013       -1.66260        1.59079
H          0.44520        3.31966        0.71972
H         -1.08604        2.40953        0.80882
H          0.27175        1.98066        1.89189
H          2.61309        0.87078       -1.45359
H          2.94425       -0.19672       -0.05898
H          2.96196       -0.86435       -1.71846
H         -0.41367       -1.96938        1.78285
H          1.04009       -2.27660        0.78860
H          1.20944       -1.79135        2.50109
