16
/scratch/dz1061/gcn/chemGraph/data/deepchem/freesol/split/QM_opt/gjf/542.log	Energy: -170547.7596189
C          2.55494        0.13390       -0.00001
C          1.29852       -0.73496        0.00000
C          0.00000        0.06754        0.00002
O          0.00000        1.28455        0.00000
C         -1.29852       -0.73496        0.00000
C         -2.55494        0.13390       -0.00001
H          3.45567       -0.48886       -0.00002
H          2.58164        0.78221        0.88081
H          2.58162        0.78221       -0.88082
H          1.28238       -1.40498        0.87250
H          1.28236       -1.40498       -0.87250
H         -1.28236       -1.40498       -0.87250
H         -1.28238       -1.40498        0.87249
H         -2.58162        0.78221       -0.88082
H         -2.58164        0.78221        0.88081
H         -3.45567       -0.48886       -0.00002
