20
/scratch/dz1061/gcn/chemGraph/data/deepchem/freesol/split/QM_opt/gjf/547.log	Energy: -182745.8582187
C         -1.88926        0.00000       -0.27314
C         -1.17223        1.26871        0.21368
C          0.31188        1.26106       -0.18384
C          1.03146        0.00000        0.31580
C          0.31188       -1.26106       -0.18384
C         -1.17223       -1.26871        0.21368
N          2.41726        0.00000       -0.17421
H         -2.93359        0.00000        0.06469
H         -1.91517        0.00000       -1.37278
H         -1.66399        2.16296       -0.18956
H         -1.25708        1.33459        1.30862
H          0.81438        2.15672        0.20877
H          0.41052        1.29852       -1.27752
H          0.97370        0.00000        1.42311
H          0.81438       -2.15672        0.20877
H          0.41052       -1.29852       -1.27752
H         -1.25708       -1.33459        1.30862
H         -1.66399       -2.16296       -0.18956
H          2.90883        0.81415        0.19491
H          2.90883       -0.81415        0.19491
