5
/scratch/dz1061/gcn/chemGraph/data/deepchem/freesol/split/QM_opt/gjf/552.log	Energy: -376086.4694052
C          0.00000       -0.81707       -0.00000
F          1.35844       -0.77659        0.00000
Cl        -0.67728        0.85374       -0.00000
H         -0.35609       -1.31090        0.90559
H         -0.35609       -1.31090       -0.90559
