13
/scratch/dz1061/gcn/chemGraph/data/deepchem/freesol/split/QM_opt/gjf/561.log	Energy: -203087.9871832
C         -1.06803        2.42001       -0.00000
C         -0.95421        0.89244       -0.00000
C          0.50891        0.44027        0.00000
N          0.57461       -1.06333        0.00000
O          0.57461       -1.62474       -1.09257
O          0.57461       -1.62474        1.09257
H         -0.59334        2.85650        0.88643
H         -2.11933        2.72522       -0.00000
H         -0.59334        2.85650       -0.88643
H         -1.45031        0.47408        0.88341
H         -1.45031        0.47408       -0.88341
H          1.03526        0.76822        0.89800
H          1.03526        0.76822       -0.89800
