20
/scratch/dz1061/gcn/chemGraph/data/deepchem/freesol/split/QM_opt/gjf/563.log	Energy: -148773.3859352
C          3.22431        0.20863       -0.00000
C          1.89285       -0.54969        0.00000
C          0.66891        0.37544       -0.00000
C         -0.66891       -0.37544       -0.00000
C         -1.89285        0.54969        0.00000
C         -3.22431       -0.20863       -0.00000
H          4.07764       -0.47931       -0.00000
H          3.31443        0.85112        0.88466
H          3.31443        0.85112       -0.88466
H          1.84752       -1.20954       -0.87812
H          1.84752       -1.20954        0.87812
H          0.71490        1.03627       -0.87861
H          0.71490        1.03627        0.87861
H         -0.71490       -1.03627        0.87861
H         -0.71490       -1.03627       -0.87861
H         -1.84753        1.20954        0.87812
H         -1.84753        1.20954       -0.87812
H         -3.31443       -0.85112       -0.88466
H         -4.07764        0.47931        0.00000
H         -3.31443       -0.85112        0.88466
