19
/scratch/dz1061/gcn/chemGraph/data/deepchem/freesol/split/QM_opt/gjf/566.log	Energy: -252427.5746964
C          4.00601       -0.00000        0.09322
C          2.63252        0.00001       -0.58516
C          1.46999       -0.00001        0.41663
C          0.09616        0.00000       -0.26707
C         -1.04573       -0.00001        0.75293
N         -2.36776       -0.00000        0.03349
O         -2.84850        1.09268       -0.25611
O         -2.84850       -1.09267       -0.25613
H          4.13538       -0.88512        0.72790
H          4.13538        0.88510        0.72793
H          4.81391        0.00001       -0.64671
H          2.54532        0.87848       -1.23939
H          2.54532       -0.87844       -1.23942
H          1.55391        0.87975        1.07096
H          1.55391       -0.87979        1.07093
H         -0.00569        0.88377       -0.90889
H         -0.00569       -0.88375       -0.90892
H         -1.03756        0.89794        1.37293
H         -1.03756       -0.89798        1.37291
