24
/scratch/dz1061/gcn/chemGraph/data/deepchem/freesol/split/QM_opt/gjf/567.log	Energy: -429257.4910069
C          4.44860       -0.16561       -0.14323
N          3.03176       -0.40241        0.10881
C          2.74400       -1.50033        1.02286
C          2.14473        0.58646       -0.24246
O          2.50734        1.66593       -0.70368
C          0.66500        0.31274       -0.11344
C          0.07040       -0.86912       -0.57931
C         -1.31248       -1.02863       -0.54312
C         -2.08972        0.00541       -0.02688
C         -1.52805        1.19671        0.43100
C         -0.14737        1.34865        0.36980
N         -3.55168       -0.16309        0.02899
O         -4.21587        0.76444        0.48963
O         -4.02066       -1.22252       -0.38634
H          4.91977       -1.09969       -0.46942
H          4.96078        0.18523        0.76360
H          4.54910        0.59321       -0.91768
H          2.98473       -2.46713        0.56224
H          1.69473       -1.50122        1.31370
H          3.35149       -1.39763        1.93256
H          0.68829       -1.66140       -0.99059
H         -1.79252       -1.92889       -0.90624
H         -2.17165        1.97896        0.81390
H          0.31748        2.27664        0.68512
