22
/scratch/dz1061/gcn/chemGraph/data/deepchem/freesol/split/QM_opt/gjf/57.log	Energy: -290734.5071473
C         -2.42724        1.18607        0.00000
C         -1.27560        1.95202        0.00000
C          0.00000        1.32340       -0.00000
C          1.27560        1.95202       -0.00000
C          2.42724        1.18607       -0.00000
C          2.39610       -0.23692       -0.00000
C          1.17515       -0.87407        0.00000
C          0.00000       -0.09118       -0.00000
C         -1.17515       -0.87407       -0.00000
C         -2.39610       -0.23692        0.00000
C         -0.78465       -2.34292       -0.00000
C          0.78465       -2.34292        0.00000
H         -3.39360        1.68434        0.00000
H         -1.34184        3.03745        0.00000
H          1.34184        3.03745       -0.00000
H          3.39360        1.68434       -0.00000
H          3.33029       -0.79341       -0.00000
H         -3.33029       -0.79341        0.00000
H         -1.18422       -2.86505       -0.87791
H         -1.18422       -2.86505        0.87791
H          1.18422       -2.86505       -0.87791
H          1.18422       -2.86505        0.87791
