18
/scratch/dz1061/gcn/chemGraph/data/deepchem/freesol/split/QM_opt/gjf/574.log	Energy: -171298.0622436
C         -2.81557       -0.22395       -0.16344
C         -1.47309        0.33975        0.31240
C         -0.27880       -0.51847       -0.12223
C          1.07518        0.03253        0.32624
C          2.23682       -0.88787       -0.05415
O          1.22111        1.31767       -0.28881
H         -3.65095        0.40726        0.16075
H         -2.98862       -1.23321        0.23137
H         -2.85292       -0.28756       -1.25805
H         -1.47828        0.42178        1.40911
H         -1.33557        1.35640       -0.07212
H         -0.26557       -0.60745       -1.21791
H         -0.38820       -1.53687        0.27676
H          1.05801        0.14894        1.42459
H          2.13820       -1.87054        0.42196
H          3.19690       -0.46076        0.26409
H          2.27141       -1.02772       -1.14043
H          2.05949        1.69650        0.01739
