18
/scratch/dz1061/gcn/chemGraph/data/deepchem/freesol/split/QM_opt/gjf/576.log	Energy: -252335.0094757
C          3.20512       -0.49689        0.00378
O          2.28785        0.58027        0.00886
C          0.94818        0.28014        0.00084
C          0.41498       -1.01144       -0.00255
C         -0.97065       -1.19759       -0.00660
C         -1.85101       -0.10997       -0.00913
C         -1.30045        1.18410       -0.00674
C          0.07471        1.37570       -0.00092
N         -3.24422       -0.29894       -0.07941
H          3.09400       -1.13105        0.89469
H          4.20017       -0.04696        0.00657
H          3.09443       -1.12185       -0.89356
H          1.06011       -1.88296        0.00089
H         -1.36871       -2.21018       -0.01339
H         -1.96161        2.04813       -0.01477
H          0.49663        2.37615        0.00350
H         -3.55461       -1.18547        0.30179
H         -3.77886        0.46030        0.32723
