16
/scratch/dz1061/gcn/chemGraph/data/deepchem/freesol/split/QM_opt/gjf/578.log	Energy: -215206.1157629
C          2.72616       -0.25376        0.60809
C          1.86542        0.31374       -0.53313
C          0.38653        0.14582       -0.27870
C         -0.45993        1.23755       -0.03459
N         -1.76734        1.10416        0.20856
C         -2.23896       -0.14701        0.20752
C         -1.40856       -1.24287       -0.03421
N         -0.10213       -1.10591       -0.27621
H          2.49682       -1.31226        0.76505
H          2.53856        0.27814        1.54777
H          3.79182       -0.16149        0.37218
H          2.11650       -0.20671       -1.46564
H          2.09217        1.37584       -0.68483
H         -0.06533        2.25260       -0.03827
H         -3.30150       -0.27842        0.40241
H         -1.80665       -2.25629       -0.03495
