19
/scratch/dz1061/gcn/chemGraph/data/deepchem/freesol/split/QM_opt/gjf/580.log	Energy: -242275.5034863
C          3.61383       -0.13852        0.00000
C          2.23852        0.50642        0.00000
O          1.27221       -0.54206       -0.00000
C         -0.05419       -0.21461       -0.00000
C         -0.55136        1.09445       -0.00000
C         -1.93426        1.30535        0.00000
C         -2.82321        0.23325        0.00000
C         -2.31750       -1.07161        0.00000
C         -0.94597       -1.29812       -0.00000
H          4.39203        0.63238        0.00000
H          3.74523       -0.76558       -0.88739
H          3.74523       -0.76558        0.88739
H          2.10302        1.14023        0.88842
H          2.10302        1.14023       -0.88841
H          0.11940        1.94594       -0.00000
H         -2.31111        2.32507        0.00000
H         -3.89523        0.40754        0.00000
H         -2.99752       -1.91966        0.00000
H         -0.53691       -2.30381       -0.00000
