22
/scratch/dz1061/gcn/chemGraph/data/deepchem/freesol/split/QM_opt/gjf/581.log	Energy: -219874.9989223
C         -2.02847       -0.66171       -0.08146
C         -1.73674        0.80118       -0.47751
C         -0.71412        1.55355        0.39457
C          0.74809        1.29887       -0.01075
C          1.31367       -0.09678        0.28460
C          0.51199       -1.26775       -0.29284
C         -0.83291       -1.49930        0.41854
O          2.63367       -0.21567       -0.25702
H         -2.79854       -0.67572        0.70179
H         -2.47984       -1.16053       -0.94964
H         -1.38303        0.83602       -1.51720
H         -2.68897        1.34718       -0.47324
H         -0.90024        2.63097        0.30023
H         -0.86499        1.31580        1.45763
H          0.85877        1.48187       -1.08897
H          1.39177        2.03514        0.49573
H          1.35234       -0.23240        1.38102
H          0.37394       -1.12420       -1.37309
H          1.14319       -2.15706       -0.17959
H         -0.68663       -1.32235        1.49340
H         -1.10642       -2.55845        0.33481
H          3.15032        0.54078        0.06230
