12
/scratch/dz1061/gcn/chemGraph/data/deepchem/freesol/split/QM_opt/gjf/583.log	Energy: -155943.7872068
C          0.41334        1.43188        0.00001
N          0.34840       -0.01928       -0.00009
C          1.59598       -0.75565        0.00001
C         -0.86313       -0.65041        0.00001
O         -1.95230       -0.10110        0.00000
H          0.94167        1.79689        0.89053
H          0.94180        1.79702       -0.89036
H         -0.60809        1.81385       -0.00002
H          2.19515       -0.51887       -0.88967
H          1.38871       -1.82970        0.00097
H          2.19572       -0.51740        0.88890
H         -0.75247       -1.75288        0.00008
