26
/scratch/dz1061/gcn/chemGraph/data/deepchem/freesol/split/QM_opt/gjf/587.log	Energy: -339316.3955516
C         -3.56698       -0.69783       -0.49642
C         -3.56698        0.69783       -0.49642
C         -2.41434        1.39003       -0.12378
C         -1.25918        0.70217        0.25959
C         -1.25918       -0.70217        0.25959
C         -2.41434       -1.39003       -0.12378
C          0.00000       -1.43233        0.68432
C          1.25918       -0.70217        0.25959
C          2.41434       -1.39003       -0.12378
C          3.56698       -0.69783       -0.49642
C          3.56698        0.69783       -0.49642
C          2.41434        1.39003       -0.12378
C          1.25918        0.70217        0.25959
C          0.00000        1.43233        0.68432
H         -4.45736       -1.24577       -0.79330
H         -4.45736        1.24577       -0.79330
H         -2.40899        2.47805       -0.13287
H         -2.40899       -2.47805       -0.13287
H          0.00000       -2.45533        0.29072
H          0.00000       -1.53484        1.78305
H          2.40899       -2.47805       -0.13287
H          4.45736       -1.24577       -0.79330
H          4.45736        1.24577       -0.79330
H          2.40899        2.47805       -0.13287
H          0.00000        1.53484        1.78305
H          0.00000        2.45533        0.29072
