7
/scratch/dz1061/gcn/chemGraph/data/deepchem/freesol/split/QM_opt/gjf/588.log	Energy: -153745.6755335
C          1.32514       -0.00000       -0.00263
N         -0.17372        0.00000       -0.01174
O         -0.73139       -1.09261        0.00325
O         -0.73139        1.09261        0.00325
H          1.66602        0.90660       -0.49946
H          1.66602       -0.90660       -0.49945
H          1.63538        0.00000        1.04490
