21
/scratch/dz1061/gcn/chemGraph/data/deepchem/freesol/split/QM_opt/gjf/589.log	Energy: -398637.2573069
C          3.26950        0.12546        0.35734
C          2.19544       -0.84893       -0.13225
C          1.07053       -0.18656       -0.93895
S         -0.00000        0.98292        0.00002
C         -1.07049       -0.18668        0.93890
C         -2.19544       -0.84895        0.13216
C         -3.26953        0.12551       -0.35725
H          2.83569        0.89573        1.00313
H          3.75675        0.63010       -0.48642
H          4.04582       -0.39861        0.92600
H          2.65744       -1.61366       -0.77367
H          1.76699       -1.39063        0.72143
H          1.49228        0.41694       -1.75110
H          0.43066       -0.94261       -1.40704
H         -0.43060       -0.94280        1.40685
H         -1.49220        0.41670        1.75114
H         -2.65741       -1.61376        0.77350
H         -1.76704       -1.39054       -0.72161
H         -4.04587       -0.39849       -0.92594
H         -3.75674        0.63003        0.48661
H         -2.83575        0.89586       -1.00296
