13
/scratch/dz1061/gcn/chemGraph/data/deepchem/freesol/split/QM_opt/gjf/592.log	Energy: -145870.2016701
C          2.31533       -0.06915        0.00003
C          0.83502       -0.46114       -0.00004
C         -0.09815        0.75075       -0.00000
C         -1.56979        0.40534       -0.00007
O         -2.01628       -0.72094        0.00004
H          2.95771       -0.95664       -0.00000
H          2.57183        0.52647        0.88496
H          2.57188        0.52658       -0.88482
H          0.60938       -1.08331       -0.87417
H          0.60932       -1.08341        0.87400
H          0.08574        1.39956       -0.87204
H          0.08568        1.39946        0.87213
H         -2.25572        1.28407        0.00016
