26
/scratch/dz1061/gcn/chemGraph/data/deepchem/freesol/split/QM_opt/gjf/596.log	Energy: -291769.3024881
C          2.56381        1.53469        0.12154
C          2.49829        0.09265       -0.39964
C          3.77203       -0.69095       -0.04943
C          1.27906       -0.65064        0.14016
O          0.08845        0.02930       -0.31671
C         -1.09108       -0.50919        0.07227
O         -1.17513       -1.51086        0.75088
C         -2.26541        0.32557       -0.42278
C         -2.42247        1.56642        0.48119
C         -3.54531       -0.51419       -0.46891
H          3.42229        2.06523       -0.30594
H          1.65707        2.09018       -0.13605
H          2.67239        1.55016        1.21406
H          2.40133        0.12398       -1.49428
H          3.74554       -1.70937       -0.45473
H          3.90405       -0.76558        1.03762
H          4.65801       -0.19120       -0.45619
H          1.24864       -1.68666       -0.21402
H          1.27584       -0.67562        1.23657
H         -2.01008        0.67325       -1.43152
H         -1.50925        2.16949        0.49139
H         -2.65129        1.26855        1.51103
H         -3.24461        2.19387        0.11998
H         -4.38561        0.09414       -0.82110
H         -3.43675       -1.37142       -1.14136
H         -3.78752       -0.90267        0.52487
