17
/scratch/dz1061/gcn/chemGraph/data/deepchem/freesol/split/QM_opt/gjf/598.log	Energy: -205144.0610334
C         -2.75133       -0.00000        0.69145
C         -1.91516        0.00000       -0.60136
C         -0.42750        0.00000       -0.32971
C          0.29128        1.19156       -0.17939
C          1.65494        1.13865        0.10795
N          2.34452       -0.00000        0.25286
C          1.65494       -1.13865        0.10795
C          0.29128       -1.19156       -0.17939
H         -2.53407        0.88458        1.30030
H         -2.53407       -0.88459        1.30030
H         -3.82238       -0.00000        0.46037
H         -2.17684        0.88031       -1.20143
H         -2.17684       -0.88031       -1.20143
H         -0.20380        2.15356       -0.28976
H          2.22478        2.05977        0.22316
H          2.22478       -2.05978        0.22316
H         -0.20381       -2.15356       -0.28976
