26
/scratch/dz1061/gcn/chemGraph/data/deepchem/freesol/split/QM_opt/gjf/599.log	Energy: -419884.9412202
C         -4.75872       -0.81870        0.16243
N         -3.39224       -0.84340       -0.32138
C         -2.45155        0.03891        0.10718
O         -2.61532        0.93542        0.90714
O         -1.26134       -0.25997       -0.53012
C         -0.12061        0.50157       -0.29649
C         -0.13263        1.87725       -0.30982
C          1.07993        2.58512       -0.13789
C          2.27065        1.91729        0.03042
C          2.30558        0.49763        0.04017
C          1.08510       -0.23706       -0.12171
C          1.12396       -1.65673       -0.10412
C          2.31693       -2.32286        0.06575
C          3.52556       -1.60225        0.22307
C          3.51662       -0.22619        0.21038
H         -5.00973       -1.74260        0.69724
H         -5.46752       -0.68407       -0.66306
H         -4.85048        0.02306        0.84997
H         -3.10281       -1.54332       -0.98857
H         -1.06628        2.40995       -0.43545
H          1.05812        3.67125       -0.14362
H          3.19995        2.46643        0.15881
H          0.19725       -2.20653       -0.22528
H          2.33325       -3.40937        0.08011
H          4.46037       -2.14044        0.35482
H          4.44192        0.33198        0.33228
