7
/scratch/dz1061/gcn/chemGraph/data/deepchem/freesol/split/QM_opt/gjf/602.log	Energy: -1018918.5869039
C         -0.23564       -0.01879        0.00005
N          1.35807        0.23608       -0.00264
O          1.73435        1.38849       -0.00313
O          2.02660       -0.77755       -0.00275
Cl        -0.58779       -0.95993       -1.46378
Cl        -1.07438        1.52832       -0.00597
Cl        -0.58372       -0.94647        1.47358
