17
/scratch/dz1061/gcn/chemGraph/data/deepchem/freesol/split/QM_opt/gjf/603.log	Energy: -425764.0240254
C          0.45005        2.34927       -0.09344
C          0.65238        0.87077        0.20675
C         -0.44674       -0.03496       -0.35984
O         -1.64323        0.33994        0.35032
N         -2.79204       -0.41249       -0.02709
O         -2.64271       -1.26068       -0.88094
O         -3.77903       -0.08145        0.57897
O          1.89916        0.51285       -0.44781
N          2.59024       -0.60270        0.11634
O          3.62364       -0.83304       -0.45635
O          2.08330       -1.16435        1.06593
H          1.27124        2.93781        0.32441
H          0.40595        2.52665       -1.17287
H         -0.48941        2.68497        0.35462
H          0.75542        0.69648        1.27984
H         -0.57364        0.13166       -1.43382
H         -0.22008       -1.08785       -0.17873
