5
/scratch/dz1061/gcn/chemGraph/data/deepchem/freesol/split/QM_opt/gjf/612.log	Energy:  -87684.3553313
C          0.00000       -0.00000       -0.62999
F         -0.00000        0.00000        0.75270
H          0.00000        1.03283       -0.99813
H          0.89446       -0.51642       -0.99813
H         -0.89446       -0.51642       -0.99813
