22
/scratch/dz1061/gcn/chemGraph/data/deepchem/freesol/split/QM_opt/gjf/613.log	Energy: -384366.7465503
C          3.58569        0.69760        0.00000
C          3.58569       -0.69760        0.00000
C          2.37657       -1.39684        0.00000
C          1.17380       -0.69976       -0.00000
C          1.17380        0.69976       -0.00000
C          2.37657        1.39684       -0.00000
O         -0.00000        1.42722        0.00000
C         -1.17380        0.69976       -0.00000
C         -2.37657        1.39684       -0.00000
C         -3.58569        0.69760        0.00000
C         -3.58569       -0.69760        0.00000
C         -2.37657       -1.39684        0.00000
C         -1.17380       -0.69976       -0.00000
O          0.00000       -1.42722       -0.00001
H          4.52201        1.24717        0.00000
H          4.52201       -1.24717        0.00001
H          2.34551       -2.48189        0.00000
H          2.34551        2.48189       -0.00000
H         -2.34551        2.48189       -0.00000
H         -4.52201        1.24717        0.00000
H         -4.52201       -1.24717        0.00001
H         -2.34551       -2.48189        0.00000
