23
/scratch/dz1061/gcn/chemGraph/data/deepchem/freesol/split/QM_opt/gjf/63.log	Energy: -173443.1143794
C          3.84454       -0.35214        0.00000
C          2.56757        0.49474       -0.00000
C          1.28374       -0.34533        0.00000
C          0.00000        0.49488        0.00000
C         -1.28374       -0.34533        0.00000
C         -2.56757        0.49474        0.00000
C         -3.84454       -0.35214       -0.00000
H          4.74259        0.27631        0.00000
H          3.89084       -0.99927        0.88466
H          3.89084       -0.99927       -0.88466
H          2.56707        1.15615       -0.87812
H          2.56707        1.15615        0.87812
H          1.28481       -1.00774        0.87858
H          1.28481       -1.00774       -0.87858
H         -0.00000        1.15713        0.87861
H         -0.00000        1.15713       -0.87861
H         -1.28481       -1.00774       -0.87858
H         -1.28481       -1.00774        0.87858
H         -2.56707        1.15615       -0.87812
H         -2.56707        1.15615        0.87812
H         -3.89084       -0.99927       -0.88466
H         -4.74259        0.27631       -0.00000
H         -3.89084       -0.99927        0.88466
