6
/scratch/dz1061/gcn/chemGraph/data/deepchem/freesol/split/QM_opt/gjf/631.log	Energy: -275287.3646580
C          0.04814        1.16381       -0.00000
S          0.04814       -0.67150        0.00000
H         -0.43211        1.56404        0.89584
H          1.09761        1.46782       -0.00000
H         -0.43211        1.56404       -0.89584
H         -1.29253       -0.83480       -0.00000
