14
/scratch/dz1061/gcn/chemGraph/data/deepchem/freesol/split/QM_opt/gjf/634.log	Energy: -193086.6630805
C          2.48317        0.11106        0.00001
C          1.21660       -0.74258       -0.00000
C         -0.05195        0.08895       -0.00002
O         -0.10595        1.29931       -0.00000
O         -1.14867       -0.70598       -0.00000
C         -2.40799       -0.01624        0.00001
H          2.52009        0.75757       -0.88172
H          3.37340       -0.52634        0.00002
H          2.52007        0.75757        0.88174
H          1.18077       -1.40681        0.87312
H          1.18079       -1.40681       -0.87312
H         -2.50320        0.61345        0.88897
H         -3.17064       -0.79583        0.00003
H         -2.50322        0.61343       -0.88895
