17
/scratch/dz1061/gcn/chemGraph/data/deepchem/freesol/split/QM_opt/gjf/638.log	Energy: -124104.4168704
C         -0.41392       -1.42659       -0.40742
C         -0.00001        0.00001        0.00001
C          0.64007        0.71306       -1.20594
C          1.01758       -0.07052        1.15413
C         -1.24373        0.78405        0.45924
H         -0.87391       -1.96099        0.43318
H          0.45303       -2.01084       -0.74033
H         -1.14031       -1.40885       -1.22952
H          1.53066        0.17661       -1.55646
H          0.94603        1.73410       -0.94587
H         -0.06250        0.77872       -2.04610
H          0.58944       -0.57457        2.02957
H          1.91664       -0.62441        0.85634
H          1.33192        0.93299        1.46708
H         -1.72260        0.29916        1.31909
H         -0.97994        1.80667        0.75666
H         -1.98844        0.85136       -0.34367
