34
/scratch/dz1061/gcn/chemGraph/data/deepchem/freesol/split/QM_opt/gjf/67.log	Energy: -578507.7672674
C          2.00941        3.75698       -0.03886
C          1.64945        2.40317        0.58076
C          1.50750        1.30182       -0.48002
N          1.20302       -0.01785        0.07317
C          2.32424       -0.86896        0.49374
C          2.80630       -1.82242       -0.60707
C          3.99658       -2.67306       -0.15312
C         -0.05547       -0.52680        0.21969
O         -0.28780       -1.64182        0.66314
S         -1.41817        0.58418       -0.28447
C         -2.81472       -0.56111        0.06052
C         -4.14659        0.13728       -0.22364
C         -5.33795       -0.78802        0.05254
H          2.10781        4.52914        0.73148
H          2.96042        3.70812       -0.58390
H          1.23848        4.08859       -0.74495
H          2.41891        2.10821        1.30663
H          0.70712        2.48033        1.13590
H          0.73302        1.57383       -1.20477
H          2.43978        1.21032       -1.05177
H          2.00266       -1.44325        1.36630
H          3.13973       -0.20790        0.81079
H          3.07992       -1.24270       -1.49927
H          1.96760       -2.46799       -0.89106
H          4.85579       -2.04778        0.12079
H          3.73721       -3.28271        0.72077
H          4.32143       -3.35331       -0.94776
H         -2.74136       -0.87694        1.10417
H         -2.68935       -1.45021       -0.56322
H         -4.22880        1.04006        0.39502
H         -4.17383        0.47143       -1.26877
H         -5.35356       -1.11401        1.09929
H         -5.29800       -1.68600       -0.57537
H         -6.28544       -0.27780       -0.15329
