17
/scratch/dz1061/gcn/chemGraph/data/deepchem/freesol/split/QM_opt/gjf/7.log	Energy: -205145.1791467
C          2.73458       -0.23405        0.62552
C          1.88493        0.30851       -0.53557
C          0.40049        0.15833       -0.28312
C         -0.42614        1.26589       -0.05384
C         -1.78347        1.06495        0.19199
C         -2.27718       -0.23797        0.20246
C         -1.37860       -1.27944       -0.03551
N         -0.07561       -1.09995       -0.27258
H          3.80319       -0.15913        0.39512
H          2.54590        0.32536        1.54918
H          2.49242       -1.28515        0.81005
H          2.13684       -0.24250       -1.45008
H          2.12426        1.36342       -0.71632
H         -0.00766        2.26850       -0.07077
H         -2.44235        1.91096        0.37045
H         -3.32674       -0.44648        0.38735
H         -1.72432       -2.31264       -0.03851
