6
/scratch/dz1061/gcn/chemGraph/data/deepchem/freesol/split/QM_opt/gjf/74.log	Energy:  -83304.9747479
C         -1.18068       -0.00001       -0.00001
C          0.28042        0.00002        0.00003
N          1.44069       -0.00001       -0.00001
H         -1.56113        0.50535        0.89335
H         -1.56108        0.52102       -0.88434
H         -1.56105       -1.02638       -0.00906
