12
/scratch/dz1061/gcn/chemGraph/data/deepchem/freesol/split/QM_opt/gjf/76.log	Energy: -721720.3047225
C         -0.22936        0.23822       -0.34196
C         -1.52322       -0.53690       -0.04399
F         -1.38416       -1.79289       -0.51090
F         -2.56298        0.02925       -0.67492
F         -1.78517       -0.59461        1.26332
O          0.80008       -0.40721        0.33167
C          2.02989       -0.43135       -0.30992
F          2.58423        0.80317       -0.32565
F          2.81022       -1.24527        0.41026
Cl        -0.40578        1.96393        0.16652
H         -0.07880        0.24785       -1.42563
H          1.95330       -0.79364       -1.34253
