23
/scratch/dz1061/gcn/chemGraph/data/deepchem/freesol/split/QM_opt/gjf/8.log	Energy: -267099.1145771
C          4.44607        0.08643       -0.00000
C          3.12729       -0.69305       -0.00000
C          1.89498        0.21957        0.00000
C          0.58004       -0.56242        0.00000
C         -0.64604        0.33084        0.00000
O         -0.63850        1.54296       -0.00000
O         -1.77990       -0.40889        0.00000
C         -3.01934        0.33386       -0.00000
C         -4.15544       -0.67201       -0.00000
H          4.52516        0.73009       -0.88457
H          5.30922       -0.58878       -0.00000
H          4.52516        0.73009        0.88457
H          3.09282       -1.35392        0.87812
H          3.09282       -1.35392       -0.87813
H          1.92034        0.88123       -0.87494
H          1.92034        0.88123        0.87494
H          0.51276       -1.22554       -0.87324
H          0.51276       -1.22554        0.87324
H         -3.04471        0.98171       -0.88253
H         -3.04471        0.98171        0.88253
H         -4.11140       -1.31135       -0.88753
H         -5.11735       -0.14751       -0.00000
H         -4.11140       -1.31134        0.88753
