22
/scratch/dz1061/gcn/chemGraph/data/deepchem/freesol/split/QM_opt/gjf/81.log	Energy: -219886.6237643
C          4.10855       -0.26232        0.00000
C          2.77855        0.49806        0.00000
C          1.55347       -0.42556       -0.00000
C          0.22173        0.33484        0.00000
C         -0.99568       -0.59131       -0.00000
C         -2.33409        0.14056       -0.00000
O         -2.40465        1.35508       -0.00000
C         -3.58283       -0.72809        0.00000
H          4.19823       -0.90477        0.88477
H          4.19823       -0.90477       -0.88477
H          4.96232        0.42484        0.00000
H          2.73310        1.15781       -0.87788
H          2.73310        1.15781        0.87788
H          1.59989       -1.08693        0.87855
H          1.59989       -1.08693       -0.87856
H          0.16798        0.99566        0.87415
H          0.16798        0.99566       -0.87415
H         -0.97671       -1.26318       -0.87229
H         -0.97671       -1.26318        0.87229
H         -4.47310       -0.09587        0.00000
H         -3.59761       -1.38192        0.88108
H         -3.59761       -1.38192       -0.88107
