31
/scratch/dz1061/gcn/chemGraph/data/deepchem/freesol/split/QM_opt/gjf/82.log	Energy: -468596.8839269
C          2.17631       -2.64141       -1.08920
C          1.81353       -1.58792       -0.04976
C          2.85666       -0.43294        0.06032
C          1.98295        0.79956        0.06731
C          2.25744        2.14125        0.30759
C          1.21843        3.07456        0.20388
C         -0.07534        2.66032       -0.12496
C         -0.34931        1.31461       -0.36359
C          0.69334        0.39446       -0.27960
O          0.57409       -0.93743       -0.51583
O         -1.62745        0.92605       -0.74717
C         -2.31791        0.10209        0.12488
O         -1.94244       -0.19528        1.23845
N         -3.48068       -0.27591       -0.46953
C         -4.41330       -1.18475        0.16609
C          1.49843       -2.20151        1.31580
H          2.33775       -2.17817       -2.06798
H          1.37458       -3.38098       -1.18501
H          3.09372       -3.16484       -0.79696
H          3.46855       -0.53504        0.96360
H          3.54175       -0.43317       -0.79871
H          3.26132        2.46393        0.57138
H          1.41246        4.12670        0.38956
H         -0.89130        3.37316       -0.19483
H         -3.61667       -0.00153       -1.43131
H         -4.41925       -2.16835       -0.32100
H         -5.42967       -0.77546        0.14775
H         -4.09842       -1.30935        1.20305
H          1.19331       -1.42386        2.02327
H          2.37779       -2.71799        1.71855
H          0.67789       -2.92033        1.22927
