18
/scratch/dz1061/gcn/chemGraph/data/deepchem/freesol/split/QM_opt/gjf/86.log	Energy: -205262.0014525
C         -2.37700        0.00000       -0.01762
N         -0.95443        0.00000       -0.31820
C         -0.28665        1.19947        0.18564
C          1.19117        1.16953       -0.19826
O          1.82931        0.00000        0.29732
C          1.19117       -1.16953       -0.19826
C         -0.28665       -1.19947        0.18564
H         -2.84649        0.88727       -0.45703
H         -2.59429        0.00000        1.06896
H         -2.84649       -0.88727       -0.45703
H         -0.37239        1.28440        1.28805
H         -0.76501        2.08401       -0.25390
H          1.72288        2.02103        0.23719
H          1.28529        1.21611       -1.29579
H          1.72288       -2.02103        0.23719
H          1.28529       -1.21611       -1.29579
H         -0.37239       -1.28440        1.28805
H         -0.76501       -2.08401       -0.25390
