21
/scratch/dz1061/gcn/chemGraph/data/deepchem/freesol/split/QM_opt/gjf/89.log	Energy: -219750.2161469
C          3.74584       -0.00000       -0.23201
C          2.25067       -0.00000       -0.56400
C          1.35786        0.00000        0.69302
C         -0.12175        0.00000        0.37167
C         -0.82080        1.20265        0.20039
C         -2.17558        1.20592       -0.13422
C         -2.85827       -0.00000       -0.30333
C         -2.17558       -1.20592       -0.13422
C         -0.82080       -1.20265        0.20039
H          4.02260       -0.88480        0.35459
H          4.02260        0.88480        0.35458
H          4.35527       -0.00000       -1.14280
H          2.00474        0.87742       -1.17693
H          2.00474       -0.87742       -1.17693
H          1.60360        0.87964        1.30330
H          1.60360       -0.87964        1.30330
H         -0.29716        2.14703        0.33569
H         -2.69905        2.15063       -0.25814
H         -3.91424       -0.00000       -0.56035
H         -2.69905       -2.15063       -0.25814
H         -0.29716       -2.14703        0.33569
