24
/scratch/dz1061/gcn/chemGraph/data/deepchem/freesol/split/QM_opt/gjf/90.log	Energy: -426942.8647258
C         -3.30528       -1.01829        0.00000
N         -2.27660        0.01376        0.00000
C         -2.45105        1.35943       -0.00000
N         -1.31332        2.04871        0.00000
C         -0.35660        1.08221       -0.00000
C         -0.90412       -0.18538       -0.00000
C         -0.12440       -1.38733       -0.00000
O         -0.55789       -2.53645        0.00000
N          1.26265       -1.09260       -0.00000
C          1.86260        0.18282       -0.00000
O          3.07934        0.30190        0.00000
N          1.00361        1.28254       -0.00000
C          1.55368        2.63701        0.00000
C          2.20275       -2.21870        0.00000
H         -4.28253       -0.53099        0.00000
H         -3.20648       -1.64948       -0.88590
H         -3.20648       -1.64948        0.88590
H         -3.43824        1.80283       -0.00000
H          1.21580        3.17776        0.88860
H          2.63826        2.54842       -0.00000
H          1.21580        3.17776       -0.88860
H          2.84039       -2.17283       -0.88597
H          2.84039       -2.17283        0.88597
H          1.61159       -3.13233       -0.00000
