9
/scratch/dz1061/gcn/chemGraph/data/deepchem/freesol/split/QM_opt/gjf/92.log	Energy: -447604.9676353
C         -0.24189       -0.47842       -0.00000
C         -1.41077        0.16049        0.00000
F         -1.55952        1.46772       -0.00000
F         -2.56414       -0.47630        0.00000
C          1.12466        0.13428       -0.00000
F          1.82052       -0.26054       -1.08431
F          1.82052       -0.26054        1.08431
F          1.06436        1.47551       -0.00000
F         -0.22974       -1.82343        0.00000
