17
/scratch/dz1061/gcn/chemGraph/data/deepchem/freesol/split/QM_opt/gjf/94.log	Energy: -158072.3807030
C          1.45930       -0.00002        0.23185
C          0.71620        1.26482       -0.22631
C         -0.75327        1.21487        0.20723
N         -1.37986        0.00002       -0.31981
C         -0.75330       -1.21485        0.20723
C          0.71616       -1.26484       -0.22631
H          1.52668       -0.00002        1.33015
H          2.48970       -0.00003       -0.14535
H          1.19476        2.16390        0.18223
H          0.75504        1.33929       -1.32083
H         -0.80097        1.27050        1.31457
H         -1.29682        2.08289       -0.18429
H         -2.37175        0.00003       -0.09161
H         -0.80101       -1.27048        1.31457
H         -1.29687       -2.08286       -0.18429
H          1.19470       -2.16393        0.18223
H          0.75500       -1.33932       -1.32083
