17
/scratch/dz1061/gcn/chemGraph/data/deepchem/freesol/split/QM_opt/gjf/98.log	Energy: -124103.6528369
C         -2.56163        0.32387        0.00000
C         -1.28418       -0.52353       -0.00000
C         -0.00000        0.31700        0.00000
C          1.28418       -0.52353        0.00000
C          2.56163        0.32387       -0.00000
H         -2.60812        0.97067       -0.88485
H         -3.45964       -0.30472       -0.00000
H         -2.60812        0.97067        0.88485
H         -1.28364       -1.18416        0.87856
H         -1.28364       -1.18416       -0.87856
H          0.00000        0.97862       -0.87909
H         -0.00000        0.97862        0.87909
H          1.28364       -1.18416       -0.87856
H          1.28364       -1.18416        0.87856
H          2.60812        0.97067        0.88485
H          3.45964       -0.30472       -0.00000
H          2.60812        0.97067       -0.88485
