22
/scratch/dz1061/gcn/chemGraph/data/deepchem/freesol/split/QM_opt/gjf/104.log	Energy: -1444316.3192967
C         -5.00489       -0.58683        0.00009
C         -4.30699       -0.53122       -1.20751
C         -2.91647       -0.41733       -1.20868
C         -2.21074       -0.35592        0.00004
C         -2.91665       -0.41462        1.20880
C         -4.30717       -0.52852        1.20767
C         -0.71721       -0.27241        0.00004
C          0.02827       -1.45334        0.00020
C          1.41995       -1.43475        0.00020
C          2.11180       -0.21590        0.00005
C          1.37802        0.98507       -0.00012
C         -0.02698        0.95064       -0.00013
Cl        -0.93402        2.44134       -0.00041
Cl         2.21619        2.50784       -0.00034
Cl         3.84850       -0.18933        0.00006
Cl         2.27083       -2.95828        0.00042
H         -6.08776       -0.67611        0.00011
H         -4.84377       -0.57755       -2.15112
H         -2.37374       -0.37372       -2.14898
H         -2.37407       -0.36890        2.14908
H         -4.84410       -0.57275        2.15129
H         -0.48773       -2.40676        0.00034
