21
/scratch/dz1061/gcn/chemGraph/data/deepchem/freesol/split/QM_opt/gjf/106.log	Energy: -195967.4563325
C          2.52910       -0.63753        0.54606
C          1.29126        0.18515        0.18127
C          0.02193       -0.66861        0.15246
C         -1.27108        0.07309       -0.23936
C         -1.63391        1.19053        0.75016
C         -2.43038       -0.92496       -0.37648
O          1.42916        0.76489       -1.12121
H          2.43169       -1.08105        1.54401
H          2.67916       -1.44345       -0.18108
H          3.43025       -0.01020        0.54969
H          1.17077        0.98552        0.93015
H          0.18913       -1.49080       -0.55762
H         -0.10570       -1.12877        1.14354
H         -1.09631        0.53305       -1.22011
H         -0.86153        1.96599        0.79328
H         -1.77019        0.79232        1.76499
H         -2.57159        1.67872        0.45870
H         -3.34940       -0.42279       -0.70168
H         -2.19972       -1.70823       -1.10863
H         -2.64385       -1.41769        0.58176
H          2.22259        1.32224       -1.11202
