15
/scratch/dz1061/gcn/chemGraph/data/deepchem/freesol/split/QM_opt/gjf/110.log	Energy: -146625.3479795
C          1.70885       -0.80186        0.00550
C          0.44934        0.00614       -0.33485
C          0.56751        1.46308        0.13134
C         -0.78967       -0.66824        0.25571
O         -1.94738        0.03484       -0.18674
H          1.87040       -0.84419        1.09072
H          2.59852       -0.34427       -0.44156
H          1.64172       -1.83252       -0.36370
H          0.31763        0.00333       -1.42647
H          0.72272        1.51294        1.21766
H          1.41761        1.96154       -0.34923
H         -0.34141        2.02256       -0.10643
H         -0.71926       -0.66251        1.35756
H         -0.82438       -1.72252       -0.06625
H         -2.72065       -0.36777        0.23541
