24
/scratch/dz1061/gcn/chemGraph/data/deepchem/freesol/split/QM_opt/gjf/114.log	Energy: -244421.9600786
C          3.70997       -0.22132        0.00968
C          2.20697       -0.06452       -0.00922
C          1.36444       -1.18536       -0.01687
C         -0.02153       -1.04707       -0.00967
C         -0.62542        0.21954        0.00311
C          0.21697        1.33636        0.00732
C          1.60643        1.19837        0.00012
C         -2.13967        0.38237        0.00729
C         -2.78321       -0.19349       -1.26839
C         -2.77967       -0.22443        1.27029
H          4.21245        0.70014       -0.30246
H          4.03877       -1.02673       -0.65714
H          4.07463       -0.46800        1.01594
H          1.80165       -2.18196       -0.03022
H         -0.64073       -1.94123       -0.01798
H         -0.21957        2.33323        0.01263
H          2.23216        2.08856        0.00057
H         -2.34704        1.46135        0.02072
H         -2.62606       -1.27647       -1.33913
H         -3.86507       -0.01362       -1.27203
H         -2.35734        0.26426       -2.16790
H         -2.35120        0.21108        2.17956
H         -3.86146       -0.04443        1.28133
H         -2.62283       -1.30886        1.31416
