12
/scratch/dz1061/gcn/chemGraph/data/deepchem/freesol/split/QM_opt/gjf/115.log	Energy: -166620.3757043
C          2.06506        0.02653        0.00000
N          0.61132        0.01609       -0.00000
C         -0.22767        1.11416        0.00000
C         -1.50305        0.60699        0.00000
N         -1.47775       -0.76940        0.00000
C         -0.19972       -1.08542        0.00000
H          2.45844       -0.47334       -0.89119
H          2.41329        1.06115       -0.00004
H          2.45844       -0.47327        0.89123
H          0.16054        2.12219        0.00000
H         -2.43685        1.15328       -0.00000
H          0.20342       -2.09041       -0.00000
