22
/scratch/dz1061/gcn/chemGraph/data/deepchem/freesol/split/QM_opt/gjf/120.log	Energy: -672766.6792563
C         -4.40439        0.30631        0.00000
C         -4.20658       -1.07426        0.00000
C         -2.91030       -1.59532        0.00000
C         -1.81981       -0.73385       -0.00000
C         -2.01781        0.65091       -0.00000
C         -3.30689        1.17073        0.00000
O         -0.95754        1.53788       -0.00000
C          0.30435        0.98325       -0.00000
C          1.40000        1.83793        0.00000
C          2.69831        1.32365        0.00000
C          2.87799       -0.05717        0.00000
C          1.78882       -0.92958       -0.00000
C          0.50228       -0.40302       -0.00000
O         -0.55236       -1.28839       -0.00000
Cl         4.50371       -0.72448        0.00000
H         -5.40925        0.71735        0.00000
H         -5.05546       -1.75107        0.00000
H         -2.72458       -2.66475       -0.00000
H         -3.42943        2.24924        0.00000
H          1.22300        2.90863        0.00000
H          3.55431        1.98859        0.00000
H          1.92165       -2.00521       -0.00000
