20
/scratch/dz1061/gcn/chemGraph/data/deepchem/freesol/split/QM_opt/gjf/121.log	Energy: -242430.6417336
C         -4.08338       -0.21680       -0.00001
C         -2.74206        0.52321       -0.00000
C         -1.53200       -0.41977        0.00000
C         -0.18918        0.32031        0.00001
C          1.00873       -0.63138        0.00001
C          2.34133        0.08578        0.00002
O          2.50934        1.28517       -0.00001
O          3.37848       -0.79187       -0.00002
H         -4.18293       -0.85769       -0.88480
H         -4.92614        0.48371       -0.00001
H         -4.18293       -0.85769        0.88479
H         -2.68642        1.18207       -0.87796
H         -2.68643        1.18207        0.87796
H         -1.58780       -1.08011       -0.87858
H         -1.58780       -1.08011        0.87859
H         -0.12437        0.97876        0.87514
H         -0.12437        0.97876       -0.87513
H          0.98846       -1.29781       -0.87314
H          0.98846       -1.29781        0.87316
H          4.18903       -0.24862       -0.00003
