18
/scratch/dz1061/gcn/chemGraph/data/deepchem/freesol/split/QM_opt/gjf/126.log	Energy: -195080.2864924
C         -2.76231       -0.00000        0.70053
C         -1.92662        0.00000       -0.59196
C         -0.43484        0.00000       -0.32848
C          0.27025       -1.20265       -0.18505
C          1.63716       -1.20592        0.09592
C          2.32598       -0.00000        0.23799
C          1.63716        1.20592        0.09592
C          0.27025        1.20265       -0.18505
H         -2.54291        0.88422        1.30960
H         -2.54291       -0.88422        1.30960
H         -3.83493        0.00000        0.47417
H         -2.19314       -0.87916       -1.19238
H         -2.19314        0.87916       -1.19238
H         -0.25834       -2.14709       -0.29940
H          2.16512       -2.15063        0.19903
H          3.39124       -0.00000        0.45321
H          2.16512        2.15063        0.19903
H         -0.25834        2.14709       -0.29940
