22
/scratch/dz1061/gcn/chemGraph/data/deepchem/freesol/split/QM_opt/gjf/128.log	Energy: -1826350.8227289
C          4.34745       -1.35912       -0.00001
C          3.06439       -1.90982        0.00000
C          1.95280       -1.07837        0.00001
C          2.11482        0.30750        0.00001
C          3.38287        0.87299        0.00000
C          4.49326        0.02683       -0.00001
Cl         6.09913        0.73226       -0.00001
O          1.02846        1.16126        0.00002
C         -0.21304        0.58092        0.00001
C         -0.37553       -0.80788        0.00001
C         -1.65620       -1.36338        0.00000
C         -2.78629       -0.52720       -0.00000
C         -2.62287        0.86642       -0.00000
C         -1.32974        1.41819        0.00000
Cl        -1.07134        3.13431        0.00001
Cl        -4.00687        1.91377       -0.00001
Cl        -4.37517       -1.22572       -0.00001
Cl        -1.80221       -3.09288        0.00000
O          0.69739       -1.65856        0.00001
H          5.22064       -2.00114       -0.00001
H          2.91411       -2.98434        0.00000
H          3.48679        1.95168        0.00000
