12
/scratch/dz1061/gcn/chemGraph/data/deepchem/freesol/split/QM_opt/gjf/129.log	Energy: -317599.5396093
C         -0.97796        1.05528        0.00001
O         -1.80143        1.94386       -0.00001
N          0.39577        1.28028        0.00001
C          1.40288        0.31929        0.00000
O          2.58415        0.58816       -0.00001
N          0.91088       -0.98289        0.00001
C         -0.42492       -1.37457        0.00000
O         -0.78272       -2.53202       -0.00001
N         -1.30666       -0.29739        0.00001
H          0.69476        2.24750       -0.00000
H          1.59902       -1.72544       -0.00000
H         -2.29379       -0.52206       -0.00001
