11
/scratch/dz1061/gcn/chemGraph/data/deepchem/freesol/split/QM_opt/gjf/131.log	Energy: -444203.3706656
C          1.58875        1.17962       -0.00000
C          2.24044       -0.05552       -0.00000
C          1.46130       -1.21018       -0.00000
N          0.11972       -1.19688        0.00000
C         -0.46955       -0.01594        0.00000
C          0.19706        1.21280        0.00000
Cl        -2.23476       -0.01293       -0.00000
H          2.15473        2.10706       -0.00000
H          3.32363       -0.12312       -0.00000
H          1.92294       -2.19528       -0.00000
H         -0.35636        2.14460       -0.00000
