15
/scratch/dz1061/gcn/chemGraph/data/deepchem/freesol/split/QM_opt/gjf/135.log	Energy: -458811.9265938
C          0.84474        2.12060       -0.00000
C         -0.09789        0.94415       -0.00000
C         -1.48731        1.13064        0.00000
C         -2.37639        0.05637        0.00000
C         -1.88638       -1.24918        0.00000
C         -0.50968       -1.47163       -0.00000
C          0.35986       -0.38235       -0.00000
Cl         2.09556       -0.70500        0.00000
H          1.49935        2.10909        0.87929
H          1.49936        2.10909       -0.87929
H          0.28759        3.06186       -0.00000
H         -1.87166        2.14779        0.00000
H         -3.44702        0.24010        0.00000
H         -2.56727       -2.09564       -0.00000
H         -0.10650       -2.47887       -0.00000
