13
/scratch/dz1061/gcn/chemGraph/data/deepchem/freesol/split/QM_opt/gjf/15.log	Energy: -203621.9335678
C         -2.18112       -0.00000        0.00000
C         -1.48401       -1.21069        0.00000
C         -0.09144       -1.21725       -0.00000
C          0.61037        0.00000        0.00000
C         -0.09144        1.21725       -0.00000
C         -1.48401        1.21069        0.00000
C          2.04515        0.00000        0.00000
N          3.20857       -0.00000       -0.00000
H         -3.26748       -0.00000        0.00000
H         -2.02541       -2.15214        0.00000
H          0.45862       -2.15267       -0.00000
H          0.45862        2.15267        0.00000
H         -2.02541        2.15214        0.00000
