16
/scratch/dz1061/gcn/chemGraph/data/deepchem/freesol/split/QM_opt/gjf/150.log	Energy: -147227.9969057
C          1.46003       -1.12878       -0.42808
C          0.74524        0.12488        0.02693
C          1.42610        1.18885        0.47643
C         -0.74524        0.12488       -0.02693
C         -1.42610        1.18885       -0.47643
C         -1.46003       -1.12878        0.42808
H          2.54526       -0.99198       -0.40716
H          1.16919       -1.40524       -1.45010
H          1.21855       -1.98663        0.21257
H          0.91942        2.07376        0.84981
H          2.51318        1.20040        0.49515
H         -0.91942        2.07376       -0.84981
H         -2.51318        1.20040       -0.49515
H         -1.21855       -1.98663       -0.21257
H         -1.16919       -1.40524        1.45010
H         -2.54526       -0.99198        0.40716
