15
/scratch/dz1061/gcn/chemGraph/data/deepchem/freesol/split/QM_opt/gjf/152.log	Energy: -146626.0265569
C         -2.37897        0.41655       -0.00000
C         -1.18300       -0.52198        0.00000
O          0.00000        0.25711       -0.00000
C          1.18300       -0.52198       -0.00000
C          2.37897        0.41655        0.00000
H         -3.31483       -0.15331        0.00000
H         -2.36224        1.05803        0.88699
H         -2.36224        1.05803       -0.88699
H         -1.20612       -1.17931       -0.88699
H         -1.20612       -1.17931        0.88699
H          1.20612       -1.17931       -0.88699
H          1.20612       -1.17931        0.88699
H          2.36224        1.05803        0.88699
H          3.31483       -0.15331        0.00000
H          2.36224        1.05803       -0.88699
