24
/scratch/dz1061/gcn/chemGraph/data/deepchem/freesol/split/QM_opt/gjf/157.log	Energy: -291496.6936110
C          4.01892        0.44532       -0.00002
C          2.55503        0.07531        0.00003
C          2.17056       -1.29520        0.00001
C          0.84665       -1.66643       -0.00002
C         -0.18610       -0.69037       -0.00001
C         -1.56397       -1.03551        0.00002
C         -2.55503       -0.07531        0.00003
C         -2.17056        1.29520        0.00001
C         -0.84665        1.66643       -0.00002
C          0.18610        0.69037       -0.00001
C          1.56397        1.03551        0.00002
C         -4.01892       -0.44532       -0.00002
H          4.53334        0.04189        0.88169
H          4.53335        0.04148       -0.88154
H          4.15754        1.53098       -0.00027
H          2.94513       -2.05929        0.00001
H          0.57302       -2.71928       -0.00002
H         -1.83346       -2.09023        0.00006
H         -2.94513        2.05929        0.00001
H         -0.57302        2.71928       -0.00002
H          1.83346        2.09023        0.00006
H         -4.53335       -0.04147       -0.88154
H         -4.15754       -1.53098       -0.00027
H         -4.53334       -0.04189        0.88169
