22
/scratch/dz1061/gcn/chemGraph/data/deepchem/freesol/split/QM_opt/gjf/17.log	Energy: -219886.1392454
C          1.81377       -1.30106       -0.74561
C          1.30290        0.12352       -0.43330
C          2.35320        0.94084        0.32526
C         -0.00004       -0.00063        0.36433
O         -0.00018        0.00023        1.58260
C         -1.30298       -0.12394       -0.43343
C         -2.35400       -0.94028        0.32517
C         -1.81272        1.30097       -0.74613
H          2.05119       -1.83284        0.18257
H          2.72391       -1.25209       -1.35357
H          1.07384       -1.89255       -1.29714
H          1.07212        0.61317       -1.38995
H          3.29124        0.98302       -0.23953
H          2.01131        1.96741        0.49666
H          2.55197        0.49193        1.30277
H         -1.07245       -0.61397       -1.38994
H         -2.55256       -0.49099        1.30255
H         -3.29200       -0.98187       -0.23974
H         -2.01291       -1.96707        0.49685
H         -1.07226        1.89177       -1.29770
H         -2.72283        1.25257       -1.35421
H         -2.04986        1.83315        0.18189
