12
/scratch/dz1061/gcn/chemGraph/data/deepchem/freesol/split/QM_opt/gjf/170.log	Energy: -208008.2769712
C          1.83622        0.00000        0.00000
C          1.13548        1.20843       -0.00000
C         -0.26041        1.21757        0.00000
C         -0.93197        0.00000        0.00000
C         -0.26041       -1.21757        0.00000
C          1.13548       -1.20843        0.00000
F         -2.28231       -0.00000        0.00000
H          2.92213       -0.00000       -0.00000
H          1.67459        2.15183        0.00000
H         -0.82844        2.14214        0.00000
H         -0.82844       -2.14214       -0.00000
H          1.67459       -2.15183        0.00000
