14
/scratch/dz1061/gcn/chemGraph/data/deepchem/freesol/split/QM_opt/gjf/171.log	Energy: -193089.3307732
C         -2.56852       -0.39948       -0.00000
C         -1.31312        0.45268        0.00000
O         -0.17873       -0.44279        0.00000
C          1.03920        0.14728        0.00001
O          1.20325        1.34749       -0.00000
C          2.13822       -0.89053       -0.00000
H         -2.60700       -1.03914        0.88755
H         -3.45513        0.24413       -0.00001
H         -2.60700       -1.03914       -0.88756
H         -1.25471        1.09819        0.88258
H         -1.25471        1.09819       -0.88258
H          2.04974       -1.53362        0.88181
H          3.10821       -0.39223       -0.00001
H          2.04973       -1.53362       -0.88182
