11
/scratch/dz1061/gcn/chemGraph/data/deepchem/freesol/split/QM_opt/gjf/174.log	Energy: -355227.4659181
C         -2.70079       -0.32265       -0.00001
O         -1.29410       -0.64380        0.00001
C         -0.46892        0.40468        0.00004
O         -0.77977        1.56841        0.00000
C          0.99515       -0.08997       -0.00000
F          1.23716       -0.83983        1.09015
F          1.83283        0.94891       -0.00004
F          1.23709       -0.83986       -1.09014
H         -3.21506       -1.28269       -0.00003
H         -2.95515        0.25526       -0.89171
H         -2.95519        0.25522        0.89171
