12
/scratch/dz1061/gcn/chemGraph/data/deepchem/freesol/split/QM_opt/gjf/178.log	Energy: -441524.6878408
C         -2.19614        0.20429        0.00000
O         -0.89657        0.83918        0.00000
S          0.37349       -0.20514       -0.00000
O          0.39276       -0.93788        1.26513
O          0.39276       -0.93787       -1.26513
C          1.65481        1.05043       -0.00000
H         -2.32038       -0.40656       -0.89847
H         -2.91299        1.02567        0.00000
H         -2.32038       -0.40656        0.89847
H          1.55244        1.65684        0.90062
H          1.55244        1.65684       -0.90062
H          2.60942        0.52030       -0.00000
