10
/scratch/dz1061/gcn/chemGraph/data/deepchem/freesol/split/QM_opt/gjf/18.log	Energy: -121200.5324528
C         -1.45615        0.45675       -0.00000
C         -0.00000        0.91653       -0.00000
C          1.00066       -0.21703        0.00000
O          0.71115       -1.39324        0.00000
H         -2.13479        1.31558       -0.00000
H         -1.67166       -0.15475       -0.88131
H         -1.67166       -0.15475        0.88131
H          0.22661        1.55005        0.87201
H          0.22661        1.55005       -0.87201
H          2.06857        0.10223        0.00000
