11
/scratch/dz1061/gcn/chemGraph/data/deepchem/freesol/split/QM_opt/gjf/183.log	Energy:  -74764.1403908
C         -0.00000        1.27747       -0.26003
C          0.00000        0.00000        0.58660
C         -0.00000       -1.27747       -0.26003
H          0.88481        1.32299       -0.90718
H         -0.00000        2.17593        0.36800
H         -0.88481        1.32299       -0.90718
H         -0.87794        0.00000        1.24677
H          0.87794       -0.00000        1.24677
H         -0.88481       -1.32299       -0.90718
H          0.88481       -1.32299       -0.90718
H          0.00000       -2.17593        0.36800
