5
/scratch/dz1061/gcn/chemGraph/data/deepchem/freesol/split/QM_opt/gjf/184.log	Energy: -602218.5451424
C         -0.00000        0.76775        0.00000
Cl         1.49615       -0.21665        0.00000
Cl        -1.49615       -0.21665        0.00000
H          0.00000        1.37981        0.89902
H         -0.00000        1.37970       -0.89909
