19
/scratch/dz1061/gcn/chemGraph/data/deepchem/freesol/split/QM_opt/gjf/186.log	Energy: -242282.1532995
C         -2.51709       -0.78722        0.00000
C         -1.23642        0.00885        0.00000
C         -1.22811        1.40566        0.00000
C         -0.03227        2.12547        0.00000
C          1.18065        1.44032        0.00000
C          1.22095        0.04154        0.00000
C          0.00127       -0.65567        0.00000
O         -0.04824       -2.02909       -0.00000
C          2.53179       -0.71140       -0.00000
H         -2.58169       -1.44083       -0.87827
H         -3.38792       -0.12449        0.00000
H         -2.58169       -1.44083        0.87827
H         -2.17897        1.93375        0.00000
H         -0.04677        3.21160        0.00000
H          2.11807        1.99201        0.00000
H          0.85467       -2.37988        0.00000
H          3.37749       -0.01803       -0.00000
H          2.64409       -1.35295       -0.88653
H          2.64409       -1.35295        0.88653
