12
/scratch/dz1061/gcn/chemGraph/data/deepchem/freesol/split/QM_opt/gjf/197.log	Energy: -722539.2125928
C          0.00000        2.08023        0.00000
C          1.21436        1.39349       -0.00000
C          1.19625       -0.00081       -0.00000
C          0.00000       -0.71732       -0.00000
C         -1.19625       -0.00081        0.00000
C         -1.21436        1.39349        0.00000
Cl        -2.71405       -0.88550        0.00000
Cl         2.71405       -0.88550        0.00000
H          0.00000        3.16645        0.00000
H          2.15898        1.92572       -0.00000
H         -0.00000       -1.80062       -0.00000
H         -2.15898        1.92572        0.00000
