13
/scratch/dz1061/gcn/chemGraph/data/deepchem/freesol/split/QM_opt/gjf/20.log	Energy: -122551.1940127
C         -2.37550       -0.17684       -0.14904
C         -1.17643       -0.17777        0.43378
C          0.00000        0.66494        0.00000
C          1.17643       -0.17777       -0.43378
C          2.37550       -0.17684        0.14904
H         -3.18459       -0.81076        0.20404
H         -2.59655        0.46298       -1.00146
H         -0.99252       -0.83816        1.28206
H          0.31423        1.31879        0.82601
H         -0.31423        1.31879       -0.82601
H          0.99252       -0.83816       -1.28206
H          2.59655        0.46298        1.00146
H          3.18459       -0.81076       -0.20404
