29
/scratch/dz1061/gcn/chemGraph/data/deepchem/freesol/split/QM_opt/gjf/200.log	Energy: -1725780.4733922
C         -1.40032       -3.81618       -1.65017
C         -1.27241       -2.92739       -0.42878
O         -1.80531       -1.61953       -0.79412
P         -1.97748       -0.42635        0.24927
S         -1.87756       -0.79031        2.14437
O         -3.31312        0.22357       -0.34526
C         -3.86449        1.44796        0.21189
C         -5.20327        1.69024       -0.45730
O         -0.92091        0.75917       -0.29307
C          0.42419        0.69457       -0.18632
C          1.16327        1.88819       -0.26806
C          2.54667        1.80885       -0.18759
C          3.15934        0.56412       -0.02379
C          2.33191       -0.56261        0.04813
N          1.01327       -0.48298       -0.03731
Cl         3.00207       -2.16244        0.24825
Cl         4.89360        0.46961        0.08135
Cl         0.37393        3.42654       -0.46529
H         -0.82966       -3.40903       -2.49045
H         -1.00909       -4.81269       -1.41678
H         -2.44669       -3.91618       -1.95480
H         -0.23191       -2.79679       -0.12413
H         -1.84646       -3.31179        0.41880
H         -3.97003        1.32366        1.29462
H         -3.16030        2.26279        0.01525
H         -5.08430        1.79437       -1.54012
H         -5.89048        0.86191       -0.25993
H         -5.64800        2.61195       -0.06609
H          3.14944        2.70773       -0.24598
