17
/scratch/dz1061/gcn/chemGraph/data/deepchem/freesol/split/QM_opt/gjf/204.log	Energy: -241015.6487721
C          1.19403        1.93167       -0.01904
O          0.21672        1.00765       -0.47552
C         -0.09577        0.00677        0.46677
O          0.94650       -0.88142        0.68023
C          1.30842       -1.67724       -0.45284
O         -1.20593       -0.68306       -0.00167
C         -2.38284        0.10552       -0.11534
H          0.86900        2.43503        0.90453
H          1.31232        2.67799       -0.80787
H          2.15706        1.44198        0.16963
H         -0.29106        0.47094        1.45008
H          0.53979       -2.42565       -0.66909
H          1.46768       -1.05444       -1.33958
H          2.24151       -2.17544       -0.18081
H         -2.62747        0.59233        0.84123
H         -2.28064        0.87305       -0.88951
H         -3.18956       -0.58156       -0.38024
