32
/scratch/dz1061/gcn/chemGraph/data/deepchem/freesol/split/QM_opt/gjf/205.log	Energy: -247452.2984543
C          5.77874        0.28647        0.00000
C          4.48156       -0.52912       -0.00000
C          3.21849        0.34189        0.00000
C          1.91472       -0.46690       -0.00000
C          0.65185        0.40459       -0.00000
C         -0.65185       -0.40459        0.00000
C         -1.91472        0.46690       -0.00000
C         -3.21849       -0.34189        0.00000
C         -4.48156        0.52912       -0.00000
C         -5.77874       -0.28647       -0.00000
H          6.66125       -0.36362       -0.00000
H          5.84075        0.93229        0.88466
H          5.84075        0.93229       -0.88466
H          4.46500       -1.19033       -0.87812
H          4.46500       -1.19033        0.87812
H          3.23566        1.00410       -0.87858
H          3.23566        1.00410        0.87858
H          1.89862       -1.12897        0.87857
H          1.89862       -1.12897       -0.87857
H          0.66793        1.06664       -0.87854
H          0.66793        1.06664        0.87854
H         -0.66793       -1.06664        0.87854
H         -0.66793       -1.06664       -0.87854
H         -1.89862        1.12897        0.87857
H         -1.89862        1.12897       -0.87857
H         -3.23566       -1.00410       -0.87858
H         -3.23566       -1.00410        0.87858
H         -4.46500        1.19033       -0.87812
H         -4.46500        1.19033        0.87812
H         -5.84075       -0.93229       -0.88466
H         -6.66125        0.36362       -0.00000
H         -5.84075       -0.93229        0.88466
