19
/scratch/dz1061/gcn/chemGraph/data/deepchem/freesol/split/QM_opt/gjf/207.log	Energy: -252971.3570717
C          2.63771       -1.31521        0.00000
C          1.60777       -0.22599       -0.00000
C          1.83581        1.12609       -0.00000
N          0.63374        1.81416       -0.00000
C         -0.40552        0.90685        0.00000
C          0.17436       -0.39250       -0.00000
C         -0.67534       -1.51229       -0.00000
C         -2.05119       -1.31834       -0.00000
C         -2.60259       -0.02066        0.00000
C         -1.78971        1.10753        0.00000
H          2.54508       -1.96253       -0.88211
H          3.65164       -0.90102       -0.00000
H          2.54508       -1.96252        0.88211
H          2.77437        1.66437       -0.00000
H          0.53574        2.81689        0.00000
H         -0.26128       -2.51754       -0.00000
H         -2.71591       -2.17806       -0.00000
H         -3.68245        0.10093        0.00000
H         -2.21620        2.10755        0.00000
