18
/scratch/dz1061/gcn/chemGraph/data/deepchem/freesol/split/QM_opt/gjf/209.log	Energy: -148017.2146695
C         -0.42934       -1.32404        0.51721
C          0.86774       -1.16884       -0.29289
C          1.45758        0.24312       -0.14686
C          0.42934        1.32404       -0.51721
C         -0.86774        1.16884        0.29289
C         -1.45758       -0.24312        0.14686
H         -0.85631       -2.32357        0.36334
H         -0.19560       -1.24639        1.58969
H          0.65444       -1.36195       -1.35502
H          1.60299       -1.92204        0.01875
H          2.35710        0.34549       -0.76765
H          1.77876        0.39337        0.89486
H          0.85631        2.32357       -0.36334
H          0.19560        1.24639       -1.58969
H         -1.60299        1.92204       -0.01875
H         -0.65444        1.36195        1.35502
H         -2.35710       -0.34549        0.76765
H         -1.77876       -0.39337       -0.89486
