22
/scratch/dz1061/gcn/chemGraph/data/deepchem/freesol/split/QM_opt/gjf/21.log	Energy: -300931.5153729
C         -1.79351       -1.50797        0.86426
N         -1.96857       -0.32012        0.03966
C         -3.35509        0.05775       -0.20087
C         -0.99843        0.63509       -0.18305
O         -1.28563        1.78416       -0.51264
C          0.44922        0.23219       -0.07434
C          1.34133        1.15664        0.48583
C          2.70470        0.87604        0.54304
C          3.19703       -0.31945        0.01282
C          2.31936       -1.23158       -0.57535
C          0.95098       -0.96001       -0.61473
H         -2.10509       -2.41126        0.32323
H         -2.40857       -1.42921        1.77230
H         -0.75356       -1.62078        1.16570
H         -3.38113        0.87560       -0.91945
H         -3.84810        0.38924        0.72460
H         -3.90285       -0.80605       -0.59495
H          0.94998        2.09617        0.86297
H          3.38596        1.59412        0.99155
H          4.26176       -0.53424        0.04913
H          2.69935       -2.15291       -1.00875
H          0.27377       -1.66521       -1.08851
