26
/scratch/dz1061/gcn/chemGraph/data/deepchem/freesol/split/QM_opt/gjf/211.log	Energy: -198107.8876705
C          1.63323       -0.77631        1.26193
C          1.23305       -0.45874       -0.18849
C          2.43359        0.11324       -0.96258
C         -0.03072        0.44523       -0.30977
C          0.18467        1.83408        0.32274
C         -1.33076       -0.22442        0.22640
C         -1.57305       -1.62584       -0.36171
C         -2.57249        0.64867       -0.03324
H          1.92359        0.12953        1.80754
H          0.82043       -1.25491        1.81962
H          2.49194       -1.45804        1.28237
H          0.98767       -1.41104       -0.67540
H          2.83692        1.01829       -0.49376
H          2.16102        0.36422       -1.99514
H          3.24819       -0.61989       -1.00220
H         -0.18568        0.59842       -1.39090
H          0.19137        1.78049        1.41848
H         -0.60478        2.53388        0.03388
H          1.13369        2.27873        0.00727
H         -1.23012       -0.33180        1.31721
H         -2.53997       -2.01932       -0.02664
H         -0.80787       -2.34861       -0.06235
H         -1.59328       -1.59461       -1.45938
H         -2.69485        0.84712       -1.10662
H         -2.52361        1.61259        0.48173
H         -3.47976        0.13956        0.31268
