22
/scratch/dz1061/gcn/chemGraph/data/deepchem/freesol/split/QM_opt/gjf/214.log	Energy: -1537951.6459170
C         -5.07349        0.69759        0.00001
C         -5.07349       -0.69759        0.00001
C         -3.86575       -1.39999        0.00000
C         -2.66793       -0.69737       -0.00000
C         -2.66793        0.69737       -0.00000
C         -3.86575        1.39999        0.00000
O         -1.48552        1.41928       -0.00001
C         -0.32223        0.69956       -0.00000
C         -0.32223       -0.69956       -0.00000
C          0.88565       -1.39970       -0.00000
C          2.10577       -0.70143        0.00000
C          2.10577        0.70143        0.00000
C          0.88565        1.39970       -0.00000
Cl         0.82963        3.13504       -0.00000
Cl         3.60306        1.58080        0.00000
Cl         3.60306       -1.58080        0.00000
Cl         0.82963       -3.13504       -0.00000
O         -1.48552       -1.41928       -0.00001
H         -6.01027        1.24598        0.00001
H         -6.01027       -1.24598        0.00001
H         -3.83337       -2.48470        0.00000
H         -3.83337        2.48470        0.00000
