23
/scratch/dz1061/gcn/chemGraph/data/deepchem/freesol/split/QM_opt/gjf/215.log	Energy: -984560.7709563
C         -2.42184       -2.54203        0.86020
O         -1.79393       -2.11068       -0.36390
C         -0.89399       -1.07500       -0.23197
C          0.45750       -1.44499       -0.31501
C          1.47165       -0.47843       -0.23275
C          1.09050        0.85930       -0.08421
C         -0.26172        1.27615       -0.03730
C         -1.25124        0.26841       -0.11985
Cl        -2.95783        0.63128       -0.13651
C         -0.58323        2.72625        0.09150
O         -1.69039        3.20006        0.25115
Cl         2.40494        2.01823        0.03507
O          2.78197       -0.81910       -0.36789
C          3.34935       -1.59836        0.69556
O          0.78277       -2.74535       -0.48869
H         -3.04913       -1.74976        1.27577
H         -1.66838       -2.84583        1.59695
H         -3.04237       -3.39801        0.58904
H          0.29989        3.38449        0.03210
H          4.40127       -1.72745        0.43542
H          3.27213       -1.06383        1.64994
H          2.86553       -2.57643        0.77274
H         -0.06507       -3.21175       -0.62993
