16
/scratch/dz1061/gcn/chemGraph/data/deepchem/freesol/split/QM_opt/gjf/22.log	Energy: -134159.0944725
C         -2.46232       -0.37075       -0.03391
C         -1.22230        0.51857        0.02225
N          0.00000       -0.27669       -0.06944
C          1.22230        0.51857        0.02225
C          2.46232       -0.37075       -0.03391
H         -2.49314       -1.06068        0.81941
H         -3.37725        0.23121       -0.00511
H         -2.46471       -0.96897       -0.95083
H         -1.23004        1.21436       -0.82782
H         -1.25597        1.14751        0.93473
H          0.00000       -0.96388        0.68528
H          1.25597        1.14751        0.93473
H          1.23004        1.21436       -0.82782
H          2.46471       -0.96897       -0.95083
H          2.49314       -1.06068        0.81941
H          3.37725        0.23121       -0.00511
