11
/scratch/dz1061/gcn/chemGraph/data/deepchem/freesol/split/QM_opt/gjf/220.log	Energy: -168421.4238090
C         -1.97018        0.09682        0.00000
C         -0.69294       -0.74059       -0.00000
C          0.56353        0.10367       -0.00001
O          0.61100        1.31371        0.00000
O          1.68126       -0.66811        0.00000
H         -2.01533        0.74254        0.88186
H         -2.85183       -0.55210        0.00000
H         -2.01534        0.74254       -0.88186
H         -0.64650       -1.40440        0.87309
H         -0.64650       -1.40440       -0.87309
H          2.43490       -0.04845        0.00001
