21
/scratch/dz1061/gcn/chemGraph/data/deepchem/freesol/split/QM_opt/gjf/221.log	Energy: -219753.1280123
C          2.54981       -0.67430        0.00876
C          1.21994        0.04783       -0.00449
C          1.20235        1.44760       -0.00053
C         -0.00000        2.14941       -0.00196
C         -1.20235        1.44760       -0.00053
C         -1.21994        0.04783       -0.00449
C          0.00000       -0.66166       -0.01392
C          0.00000       -2.17571       -0.00615
C         -2.54981       -0.67430        0.00876
H          3.37776        0.03840        0.07295
H          2.63635       -1.36074        0.86032
H          2.70272       -1.27378       -0.89842
H          2.14575        1.98888        0.00546
H         -0.00000        3.23635        0.00039
H         -2.14575        1.98888        0.00546
H          0.88126       -2.58684       -0.50638
H         -0.88126       -2.58684       -0.50637
H          0.00001       -2.57395        1.01919
H         -3.37776        0.03840        0.07295
H         -2.70272       -1.27378       -0.89842
H         -2.63635       -1.36074        0.86032
