21
/scratch/dz1061/gcn/chemGraph/data/deepchem/freesol/split/QM_opt/gjf/223.log	Energy: -172687.8646062
C          0.54530       -2.43984       -0.00000
C          0.57049       -0.90709       -0.00000
C         -0.09131       -0.32654       -1.26389
C         -0.09131        1.21021       -1.26812
C         -0.74733        1.77687        0.00000
C         -0.09131        1.21021        1.26812
C         -0.09131       -0.32654        1.26389
H          1.04679       -2.84725        0.88632
H          1.04679       -2.84725       -0.88632
H         -0.48636       -2.81541       -0.00000
H          1.62462       -0.58416       -0.00000
H          0.41713       -0.70787       -2.15986
H         -1.12978       -0.68924       -1.31875
H          0.94619        1.57129       -1.32999
H         -0.60460        1.58575       -2.16279
H         -0.69247        2.87318        0.00000
H         -1.81666        1.51743        0.00000
H         -0.60460        1.58575        2.16279
H          0.94619        1.57129        1.32999
H         -1.12978       -0.68924        1.31875
H          0.41713       -0.70787        2.15986
