11
/scratch/dz1061/gcn/chemGraph/data/deepchem/freesol/split/QM_opt/gjf/225.log	Energy: -155801.1636387
C          0.00000       -1.38590       -0.00000
C         -1.19887       -0.67297        0.00000
C         -1.14244        0.72206       -0.00000
N         -0.00000        1.42083        0.00000
C          1.14244        0.72206        0.00000
C          1.19887       -0.67297       -0.00000
H          0.00000       -2.47275        0.00000
H         -2.15815       -1.18273        0.00000
H         -2.05980        1.30937        0.00000
H          2.05980        1.30938       -0.00000
H          2.15815       -1.18273       -0.00000
