19
/scratch/dz1061/gcn/chemGraph/data/deepchem/freesol/split/QM_opt/gjf/227.log	Energy: -195211.6920430
C          2.39971        0.69690        0.14555
C          1.10829        0.12316       -0.42111
C          0.76568       -1.30393        0.03453
C         -0.76568       -1.30393       -0.03453
C         -1.10829        0.12316        0.42111
O         -0.00000        0.93756       -0.00000
C         -2.39971        0.69690       -0.14555
H          2.38018        0.67558        1.24100
H          2.53161        1.73583       -0.17374
H          3.26511        0.11902       -0.20070
H          1.15598        0.15182       -1.52255
H          1.23500       -2.06955       -0.59171
H          1.10361       -1.45971        1.06750
H         -1.23500       -2.06955        0.59171
H         -1.10361       -1.45971       -1.06750
H         -1.15598        0.15182        1.52255
H         -2.53161        1.73583        0.17374
H         -3.26511        0.11902        0.20070
H         -2.38019        0.67558       -1.24100
