20
/scratch/dz1061/gcn/chemGraph/data/deepchem/freesol/split/QM_opt/gjf/228.log	Energy: -289474.0860211
C          2.97048       -1.22772        0.00002
C          1.73394       -0.35816       -0.00001
C          1.82184        1.03400       -0.00002
C          0.67424        1.83540       -0.00001
C         -0.58321        1.24792        0.00001
C         -0.68687       -0.15873        0.00001
C          0.45637       -0.94911        0.00000
O         -1.98671       -0.61333        0.00001
C         -2.20722       -2.01428       -0.00002
O         -1.70974        2.01849        0.00001
H          3.00845       -1.87950        0.88251
H          3.00807       -1.88011       -0.88204
H          3.88071       -0.61977       -0.00038
H          2.79945        1.50928       -0.00004
H          0.74287        2.91886       -0.00003
H          0.37177       -2.03154       -0.00001
H         -3.29017       -2.15131       -0.00003
H         -1.77996       -2.48522        0.89478
H         -1.77995       -2.48518       -0.89484
H         -2.46699        1.40741        0.00004
