24
/scratch/dz1061/gcn/chemGraph/data/deepchem/freesol/split/QM_opt/gjf/229.log	Energy: -2551554.4368561
C          2.92902        0.00001       -0.81703
C          2.07131       -1.20255       -1.21650
C          0.56204       -0.79486       -1.11239
C          0.56203        0.79486       -1.11239
C          2.07130        1.20256       -1.21650
Cl         2.62908        2.71676       -0.39979
C         -0.45720        1.13502        0.05376
C         -1.79724        0.66879       -0.54366
C         -1.79724       -0.66879       -0.54366
C         -0.45720       -1.13502        0.05376
C         -0.27062       -0.00000        1.11463
Cl        -1.54739       -0.00001        2.38430
Cl         1.29190       -0.00001        1.97140
Cl        -0.48866       -2.79210        0.68007
Cl        -2.95812       -1.72457       -1.23146
Cl        -2.95812        1.72457       -1.23145
Cl        -0.48865        2.79210        0.68007
Cl         2.62910       -2.71675       -0.39979
H          3.88866        0.00001       -1.34107
H          3.13167        0.00001        0.25091
H          2.23132       -1.41325       -2.27620
H          0.08230       -1.18493       -2.01220
H          0.08229        1.18492       -2.01220
H          2.23131        1.41326       -2.27620
