26
/scratch/dz1061/gcn/chemGraph/data/deepchem/freesol/split/QM_opt/gjf/234.log	Energy: -291768.7886106
C          5.20469        0.23130       -0.00008
C          3.90056       -0.57219       -0.00004
C          2.64751        0.31312       -0.00001
C          1.34088       -0.49127        0.00004
C          0.11236        0.40532        0.00007
O         -1.05512       -0.44629        0.00012
C         -2.25075        0.18641        0.00015
O         -2.37163        1.39265        0.00000
C         -3.39150       -0.81457        0.00000
C         -4.76506       -0.14675       -0.00017
H          6.07981       -0.42826       -0.00010
H          5.27347        0.87610        0.88467
H          5.27341        0.87609       -0.88485
H          3.87617       -1.23270        0.87813
H          3.87612       -1.23272       -0.87819
H          2.67197        0.97433        0.87875
H          2.67191        0.97431       -0.87878
H          1.30404       -1.14648       -0.88023
H          1.30410       -1.14646        0.88033
H          0.07959        1.05331       -0.88294
H          0.07965        1.05332        0.88307
H         -3.26301       -1.46738       -0.87313
H         -3.26323       -1.46737        0.87316
H         -5.55762       -0.90217       -0.00027
H         -4.89216        0.48850       -0.88176
H         -4.89238        0.48850        0.88138
