15
/scratch/dz1061/gcn/chemGraph/data/deepchem/freesol/split/QM_opt/gjf/236.log	Energy: -123332.9557830
C         -2.11513       -0.07776       -0.00000
C         -0.73442       -0.67194        0.00000
C          0.44944       -0.04063        0.00000
C          0.62957        1.45794        0.00000
C          1.74166       -0.82370       -0.00000
H         -2.11454        1.01555        0.00000
H         -2.68342       -0.40991       -0.87987
H         -2.68342       -0.40991        0.87987
H         -0.71449       -1.76322        0.00000
H          1.20513        1.77932        0.87950
H          1.20513        1.77932       -0.87950
H         -0.31408        2.00828       -0.00000
H          2.35394       -0.57943       -0.87986
H          1.56509       -1.90403        0.00000
H          2.35394       -0.57943        0.87986
