23
/scratch/dz1061/gcn/chemGraph/data/deepchem/freesol/split/QM_opt/gjf/238.log	Energy: -173440.0858210
C          1.84870       -1.33286        0.03276
C          0.99455       -0.33011        0.81914
C          0.00000        0.53622        0.00000
C         -0.76791        1.44125        0.98527
C          0.76791        1.44125       -0.98527
C         -0.99455       -0.33011       -0.81914
C         -1.84870       -1.33286       -0.03276
H          2.52341       -1.87021        0.70919
H          2.46996       -0.84027       -0.72340
H          1.23501       -2.08292       -0.47890
H          0.43532       -0.87375        1.59246
H          1.66305        0.35213        1.36363
H         -1.50187        2.06487        0.45951
H         -0.07968        2.11242        1.51389
H         -1.30397        0.85938        1.74356
H          1.50187        2.06487       -0.45951
H          1.30397        0.85938       -1.74356
H          0.07968        2.11242       -1.51389
H         -0.43532       -0.87375       -1.59246
H         -1.66305        0.35213       -1.36363
H         -1.23501       -2.08292        0.47890
H         -2.52341       -1.87021       -0.70919
H         -2.46996       -0.84027        0.72340
