20
/scratch/dz1061/gcn/chemGraph/data/deepchem/freesol/split/QM_opt/gjf/24.log	Energy: -242420.9459072
C          3.14744       -0.79766       -0.15925
C          1.90826        0.09092       -0.34356
C          2.11142        1.45118        0.34313
C          0.64976       -0.64457        0.15923
C         -0.65189        0.08393       -0.14083
O         -1.73790       -0.77535        0.29291
C         -2.97415       -0.28289        0.13055
O         -3.25706        0.79303       -0.33817
H          3.32028       -1.01354        0.90305
H          4.04650       -0.30629       -0.54875
H          3.03477       -1.75567       -0.68026
H          1.78293        0.27125       -1.42252
H          2.20533        1.32920        1.43025
H          3.02728        1.93447       -0.01619
H          1.28206        2.14173        0.15466
H          0.60001       -1.63723       -0.30664
H          0.72706       -0.81062        1.24265
H         -0.73645        1.03836        0.38616
H         -0.77058        0.28319       -1.21178
H         -3.70456       -1.02173        0.49581
