12
/scratch/dz1061/gcn/chemGraph/data/deepchem/freesol/split/QM_opt/gjf/241.log	Energy: -823299.9633751
C         -2.93768        0.30419       -0.08550
O         -1.57832        0.53409       -0.50146
C         -0.65704       -0.31529        0.00755
C          0.73434        0.10879       -0.50972
Cl         1.14040        1.76362        0.03581
Cl         1.98218       -1.07186       -0.00944
F         -0.89257       -1.60055       -0.40319
F         -0.68264       -0.34712        1.36716
H         -3.03722        0.45196        0.99282
H         -3.53180        1.04392       -0.62157
H         -3.25738       -0.70486       -0.36012
H          0.70822        0.11915       -1.59743
