18
/scratch/dz1061/gcn/chemGraph/data/deepchem/freesol/split/QM_opt/gjf/243.log	Energy: -252336.8657428
C         -2.82717       -0.94749        0.00680
O         -2.19898        0.32179       -0.01101
C         -0.83229        0.37309       -0.00373
C         -0.27645        1.66106       -0.00759
C          1.10688        1.79623       -0.00131
C          1.94645        0.68128        0.00598
C          1.39043       -0.60536        0.00976
C         -0.00888       -0.75519        0.00371
N          2.21077       -1.73875        0.07826
H         -2.56837       -1.54136       -0.88055
H         -3.90125       -0.75114        0.00574
H         -2.56485       -1.51765        0.90828
H         -0.93892        2.51983       -0.01540
H          1.54525        2.79100       -0.00559
H          3.02664        0.80405        0.01492
H         -0.43011       -1.75494        0.01489
H          3.15072       -1.59504       -0.27053
H          1.80357       -2.57951       -0.31318
