13
/scratch/dz1061/gcn/chemGraph/data/deepchem/freesol/split/QM_opt/gjf/248.log	Energy: -169146.5945972
C         -1.81445       -0.56364        0.23490
O         -0.97933        0.16433       -0.65510
C          0.00000        0.92692        0.00000
O          0.97933        0.16433        0.65510
C          1.81445       -0.56364       -0.23490
H         -1.24263       -1.28636        0.82949
H         -2.34710        0.11293        0.92132
H         -2.54439       -1.09475       -0.38063
H          0.44693        1.55457       -0.78419
H         -0.44693        1.55457        0.78419
H          2.54439       -1.09475        0.38063
H          1.24263       -1.28636       -0.82949
H          2.34710        0.11293       -0.92132
