26
/scratch/dz1061/gcn/chemGraph/data/deepchem/freesol/split/QM_opt/gjf/255.log	Energy: -338813.6534891
C          4.56874        0.55896        0.34584
C          3.09816        0.22478        0.61316
C          2.30907       -0.08579       -0.67482
C          0.85329       -0.41836       -0.42399
C          0.42861       -1.73889       -0.26206
C         -0.90869       -2.04366        0.01067
C         -1.84466       -1.02349        0.12473
C         -1.43098        0.31389       -0.03861
C         -0.09946        0.61039       -0.30989
O         -2.45482        1.22605        0.09080
C         -2.14801        2.60304       -0.05386
O         -3.15322       -1.31013        0.38582
H          5.10468        0.77442        1.27725
H          4.66522        1.43701       -0.30502
H          5.08199       -0.27531       -0.14830
H          2.61520        1.06126        1.13627
H          3.02771       -0.63716        1.28974
H          2.79245       -0.92502       -1.19268
H          2.38333        0.77680       -1.35197
H          1.14902       -2.54834       -0.35244
H         -1.24075       -3.07012        0.13227
H          0.21525        1.64134       -0.44011
H         -1.75152        2.82046       -1.05413
H         -3.08764        3.14019        0.08823
H         -1.42234        2.93137        0.70152
H         -3.62476       -0.45958        0.41937
