12
/scratch/dz1061/gcn/chemGraph/data/deepchem/freesol/split/QM_opt/gjf/260.log	Energy: -3372522.8188193
C          0.69766       -1.21370       -0.00000
C         -0.69766       -1.21370       -0.00000
C         -1.38278        0.00000       -0.00000
C         -0.69766        1.21370       -0.00000
C          0.69766        1.21370       -0.00000
C          1.38278        0.00000       -0.00000
Br         3.29335        0.00000        0.00000
Br        -3.29335        0.00000        0.00000
H          1.24386       -2.15057       -0.00000
H         -1.24386       -2.15057       -0.00000
H         -1.24386        2.15057       -0.00000
H          1.24386        2.15057        0.00000
