19
/scratch/dz1061/gcn/chemGraph/data/deepchem/freesol/split/QM_opt/gjf/261.log	Energy: -912721.6116457
C         -1.75630        2.26602       -0.78410
O         -1.29014        1.55410        0.37912
C         -0.76476        0.31793        0.14616
C         -1.57649       -0.82428        0.08101
C         -1.01308       -2.08789       -0.08359
C          0.36829       -2.23040       -0.18106
C          1.18270       -1.10237       -0.09938
C          0.63224        0.17374        0.06074
C          1.46774        1.42251        0.11619
O          1.45868        2.29143       -0.72687
O          2.22814        1.47338        1.22662
Cl         2.91859       -1.31345       -0.24599
Cl        -3.31193       -0.66698        0.23868
H         -2.53667        1.69913       -1.30240
H         -0.91912        2.47503       -1.45573
H         -2.17463        3.20013       -0.40578
H         -1.65779       -2.95887       -0.13125
H          0.81280       -3.21005       -0.31451
H          2.74670        2.29916        1.16702
