12
/scratch/dz1061/gcn/chemGraph/data/deepchem/freesol/split/QM_opt/gjf/265.log	Energy: -213683.2781487
C          1.51734        1.15862        0.00000
C          0.12875        1.22426        0.00000
C         -0.59438        0.02175        0.00000
C          0.12058       -1.18973        0.00000
N          1.45186       -1.25416        0.00000
C          2.12812       -0.09780        0.00000
C         -2.02657        0.01667       -0.00000
N         -3.18968        0.00796        0.00000
H          2.11895        2.06201       -0.00000
H         -0.39377        2.17559        0.00000
H         -0.41658       -2.13555       -0.00000
H          3.21317       -0.18131       -0.00000
