15
/scratch/dz1061/gcn/chemGraph/data/deepchem/freesol/split/QM_opt/gjf/268.log	Energy: -123327.5567059
C         -2.43178       -0.19532       -0.07924
C         -1.05695        0.44839       -0.28278
C          0.07443       -0.31482        0.43251
C          1.41920        0.34030        0.27293
C          2.48532       -0.21494       -0.30450
H         -2.44905       -1.22335       -0.46161
H         -3.21605        0.36627       -0.59937
H         -2.69842       -0.23393        0.98425
H         -0.82607        0.50499       -1.35463
H         -1.07885        1.48552        0.08037
H          0.11808       -1.34615        0.05726
H         -0.17431       -0.38234        1.50340
H          1.49812        1.35875        0.65904
H          3.42992        0.31484       -0.39619
H          2.45537       -1.22626       -0.70607
