23
/scratch/dz1061/gcn/chemGraph/data/deepchem/freesol/split/QM_opt/gjf/274.log	Energy: -337921.8927929
C         -3.72727       -0.68357        0.14686
C         -2.65563       -1.24529        0.84413
C         -1.39055       -0.65841        0.79926
C         -1.20165        0.49865        0.03727
C         -2.26598        1.07045       -0.66301
C         -3.52689        0.47796       -0.60218
O          0.00000        1.18016        0.00000
C          1.20165        0.49865       -0.03727
C          1.39055       -0.65841       -0.79926
C          2.65563       -1.24529       -0.84413
C          3.72727       -0.68357       -0.14686
C          3.52689        0.47796        0.60218
C          2.26598        1.07045        0.66301
H         -4.70941       -1.14552        0.18896
H         -2.80294       -2.14432        1.43680
H         -0.55954       -1.08727        1.34950
H         -2.08908        1.97240       -1.24040
H         -4.35369        0.92525       -1.14743
H          0.55954       -1.08727       -1.34950
H          2.80294       -2.14432       -1.43680
H          4.70941       -1.14552       -0.18896
H          4.35369        0.92525        1.14743
H          2.08908        1.97240        1.24040
