16
/scratch/dz1061/gcn/chemGraph/data/deepchem/freesol/split/QM_opt/gjf/276.log	Energy: -227757.7858877
C         -3.23772        0.00000       -0.47127
C         -2.05481       -0.00000        0.50234
C         -0.70098        0.00000       -0.22062
C          0.46980       -0.00001        0.76585
N          1.77055        0.00000        0.00885
O          2.24326        1.09253       -0.29431
O          2.24327       -1.09252       -0.29432
H         -4.19106       -0.00000        0.06802
H         -3.21888        0.88530       -1.11778
H         -3.21888       -0.88529       -1.11779
H         -2.11802       -0.87942        1.15783
H         -2.11802        0.87941        1.15784
H         -0.61870        0.88380       -0.86534
H         -0.61870       -0.88379       -0.86536
H          0.47921       -0.89792        1.38596
H          0.47921        0.89790        1.38597
