27
/scratch/dz1061/gcn/chemGraph/data/deepchem/freesol/split/QM_opt/gjf/28.log	Energy: -222006.4831475
C          4.97466        0.23188        0.12537
C          3.66155       -0.55658        0.08752
C          2.41902        0.33956        0.00598
C          1.09956       -0.44206       -0.03227
C         -0.14236        0.45496       -0.11386
C         -1.46069       -0.32815       -0.15099
C         -2.70387        0.57867       -0.23079
C         -3.99153       -0.19495       -0.31316
C         -4.98523       -0.13755        0.57432
H          5.84188       -0.43588        0.18356
H          5.09113        0.85144       -0.77250
H          5.01056        0.90073        0.99422
H          3.59064       -1.19282        0.98128
H          3.67052       -1.24170       -0.77224
H          2.41058        1.02563        0.86624
H          2.49050        0.97684       -0.88823
H          1.02888       -1.07896        0.86199
H          1.10887       -1.12804       -0.89243
H         -0.07297        1.09163       -1.00856
H         -0.15173        1.14113        0.74607
H         -1.45478       -1.01169       -1.01276
H         -1.53907       -0.96401        0.74165
H         -2.72995        1.24778        0.63968
H         -2.60879        1.22399       -1.11819
H         -4.08953       -0.86031       -1.17352
H         -4.93320        0.50861        1.44880
H         -5.89017       -0.72905        0.46224
