25
/scratch/dz1061/gcn/chemGraph/data/deepchem/freesol/split/QM_opt/gjf/283.log	Energy: -244549.1736457
C          4.89423        0.10774        0.00000
C          3.54273       -0.61389       -0.00000
C          2.34486        0.34459        0.00000
C          0.98767       -0.37043       -0.00000
C         -0.20978        0.58867        0.00000
C         -1.56274       -0.13348       -0.00000
C         -2.75353        0.82631       -0.00000
C         -4.10359        0.14633       -0.00001
O         -4.27513       -1.05298        0.00001
H          5.72809       -0.60353       -0.00000
H          5.00206        0.74744       -0.88470
H          5.00205        0.74743        0.88472
H          3.47918       -1.27227        0.87803
H          3.47919       -1.27226       -0.87804
H          2.40899        1.00397       -0.87862
H          2.40899        1.00396        0.87863
H          0.92365       -1.02945        0.87838
H          0.92365       -1.02944       -0.87839
H         -0.14609        1.24816       -0.87857
H         -0.14609        1.24815        0.87857
H         -1.63555       -0.79211       -0.87460
H         -1.63555       -0.79211        0.87459
H         -2.72745        1.50003       -0.87202
H         -2.72745        1.50003        0.87202
H         -4.97564        0.84081        0.00002
