24
/scratch/dz1061/gcn/chemGraph/data/deepchem/freesol/split/QM_opt/gjf/285.log	Energy: -431192.5794803
C         -2.66081        0.24528       -0.27349
C         -1.23188        0.14057        0.24657
C         -0.31493        1.26852       -0.24062
C          1.11956        0.99963        0.20991
C          1.57298       -0.38728       -0.22733
C          0.56868       -1.42835        0.26705
O         -0.72898       -1.12217       -0.22631
O          0.97157       -2.66595       -0.23754
O          2.86990       -0.59754        0.31471
O          1.93542        2.02744       -0.33795
O         -0.79174        2.49454        0.28911
O         -3.45608       -0.83381        0.18501
H         -2.63752        0.29125       -1.37476
H         -3.11401        1.16734        0.09765
H         -1.25234        0.13926        1.34790
H         -0.33122        1.28538       -1.34292
H          1.14824        1.04167        1.31158
H          1.58768       -0.43904       -1.32636
H          0.54528       -1.43254        1.37192
H          0.40166       -3.35216        0.14475
H          3.15228       -1.48292        0.03327
H          2.85080        1.81632       -0.09067
H         -0.10209        3.15327        0.10111
H         -2.97103       -1.63815       -0.06218
