21
/scratch/dz1061/gcn/chemGraph/data/deepchem/freesol/split/QM_opt/gjf/293.log	Energy: -219752.6212865
C         -3.21385       -0.00000        0.81567
C         -2.45376        0.00000       -0.52269
C         -0.94944        0.00000       -0.34666
C         -0.23183        1.19865       -0.24630
C          1.14867        1.19887       -0.04905
C          1.86494       -0.00000        0.05719
C          1.14867       -1.19887       -0.04906
C         -0.23183       -1.19865       -0.24630
C          3.35700       -0.00000        0.29854
H         -4.29790       -0.00000        0.65196
H         -2.95952       -0.88419        1.41111
H         -2.95952        0.88419        1.41111
H         -2.75504        0.87905       -1.10678
H         -2.75504       -0.87904       -1.10678
H         -0.75996        2.14645       -0.33243
H          1.67971        2.14641        0.01684
H          1.67971       -2.14641        0.01684
H         -0.75996       -2.14645       -0.33243
H          3.58878       -0.00000        1.37234
H          3.83359        0.88597       -0.13491
H          3.83359       -0.88597       -0.13491
