24
/scratch/dz1061/gcn/chemGraph/data/deepchem/freesol/split/QM_opt/gjf/295.log	Energy: -337543.8820282
C          3.22371       -0.20059       -0.53654
O          1.95537        0.00426        0.05216
C          0.89716       -0.28238       -0.84002
C         -0.45887        0.04168       -0.17938
O         -0.71622        1.41486       -0.12934
C         -0.09884        2.17630        0.91100
O         -0.58859       -0.44752        1.13329
C         -0.28176       -1.82284        1.32771
O         -1.38855       -0.53381       -1.05254
C         -2.75773       -0.22554       -0.78378
H          3.37915        0.45650       -1.40675
H          3.97328        0.03087        0.22451
H          3.35491       -1.24447       -0.86396
H          0.96622        0.32551       -1.75345
H          0.91380       -1.34163       -1.13854
H         -0.45431        1.86358        1.89697
H         -0.39669        3.21135        0.72446
H          0.99101        2.09213        0.87652
H         -0.80487       -2.45638        0.60123
H         -0.62755       -2.07144        2.33416
H          0.79839       -2.00047        1.26655
H         -3.00253       -0.39985        0.26940
H         -2.98643        0.81285       -1.04067
H         -3.34240       -0.90072       -1.41304
