24
/scratch/dz1061/gcn/chemGraph/data/deepchem/freesol/split/QM_opt/gjf/298.log	Energy: -291008.9449284
C          3.25675        0.32721       -0.48900
O          2.05753        0.54115        0.27169
C          1.10664       -0.41541        0.13969
O          1.25232       -1.38917       -0.56925
C         -0.10685       -0.11239        1.01467
C         -1.20636       -1.17775        0.84231
C         -1.95283       -1.04872       -0.49605
C         -2.49905        0.37087       -0.71254
C         -1.38755        1.42354       -0.58159
C         -0.66622        1.31050        0.76975
H          3.74002       -0.60736       -0.19144
H          3.03243        0.28322       -1.55819
H          3.90050        1.17914       -0.26718
H          0.27178       -0.14793        2.04671
H         -0.77088       -2.17803        0.93454
H         -1.92003       -1.05779        1.66948
H         -2.77158       -1.77868       -0.53053
H         -1.26603       -1.30694       -1.31106
H         -3.28052        0.58073        0.03360
H         -2.97942        0.44623       -1.69641
H         -0.66192        1.29177       -1.39794
H         -1.80113        2.43365       -0.69565
H         -1.37922        1.53267        1.57589
H          0.14011        2.04640        0.84518
