22
/scratch/dz1061/gcn/chemGraph/data/deepchem/freesol/split/QM_opt/gjf/301.log	Energy: -672764.9270303
C          4.08835        0.16354        0.00001
C          3.75063       -1.18978        0.00000
C          2.40812       -1.57661        0.00000
C          1.41261       -0.60726       -0.00000
C          1.75030        0.74904       -0.00000
C          3.08513        1.13597        0.00000
O          0.78318        1.73633       -0.00001
C         -0.53026        1.31821       -0.00000
C         -1.52194        2.29152        0.00000
C         -2.86445        1.90885        0.00001
C         -3.21396        0.56107        0.00000
C         -2.20948       -0.40958        0.00000
C         -0.86196       -0.04378       -0.00000
O          0.09528       -1.02777       -0.00001
Cl        -2.63272       -2.10712        0.00000
H          5.13003        0.46956        0.00001
H          4.52623       -1.94944        0.00001
H          2.11337       -2.62115        0.00000
H          3.31727        2.19628        0.00000
H         -1.22391        3.33469        0.00000
H         -3.64096        2.66728        0.00001
H         -4.25202        0.24829        0.00001
