21
/scratch/dz1061/gcn/chemGraph/data/deepchem/freesol/split/QM_opt/gjf/302.log	Energy: -323565.8545157
C          2.71741        0.05894       -0.37109
O          1.47244       -0.38879       -0.91798
C          0.33075        0.04189       -0.23922
C         -0.82746       -0.40709       -1.18106
C         -2.16365       -0.25865       -0.60630
N         -3.23123       -0.16166       -0.16055
O          0.23855       -0.48959        1.05642
C          0.17782       -1.90980        1.16320
O          0.38483        1.42957       -0.12417
C         -0.35627        2.06862        0.92204
H          3.49012       -0.48664       -0.91650
H          2.78668       -0.17308        0.69706
H          2.84498        1.13470       -0.51819
H         -0.74724        0.19361       -2.09141
H         -0.67634       -1.45313       -1.46566
H          0.95778       -2.38806        0.56069
H          0.34009       -2.13939        2.21828
H         -0.80668       -2.29423        0.86765
H         -0.21061        3.13839        0.75646
H          0.02582        1.79099        1.90769
H         -1.42399        1.83544        0.86826
