14
/scratch/dz1061/gcn/chemGraph/data/deepchem/freesol/split/QM_opt/gjf/314.log	Energy: -468874.4943789
C         -2.36180       -0.00388        0.00491
C         -1.83800       -1.29875        0.00536
C         -0.45468       -1.47206        0.00056
C          0.38456       -0.36185       -0.00551
C         -0.11731        0.95330       -0.00906
C         -1.51755        1.10100       -0.00142
N          0.71749        2.06118       -0.07645
Cl         2.13516       -0.61127        0.00195
H         -3.43745        0.14961        0.01061
H         -2.49340       -2.16405        0.00996
H         -0.01639       -2.46474        0.00508
H         -1.93340        2.10607       -0.00866
H          0.32058        2.91999        0.28155
H          1.66857        1.90979        0.23455
