22
/scratch/dz1061/gcn/chemGraph/data/deepchem/freesol/split/QM_opt/gjf/318.log	Energy: -290728.9436773
C         -0.00000        3.56383       -0.00000
C          0.39386        2.85992        1.13945
C          0.39433        1.46579        1.13873
C         -0.00000        0.74290       -0.00000
C         -0.39433        1.46579       -1.13873
C         -0.39386        2.85992       -1.13945
C         -0.00000       -0.74290       -0.00000
C          0.39433       -1.46579       -1.13873
C          0.39386       -2.85992       -1.13945
C         -0.00000       -3.56383       -0.00000
C         -0.39386       -2.85992        1.13945
C         -0.39433       -1.46579        1.13873
H          0.00000        4.65049        0.00000
H          0.71068        3.39720        2.02964
H          0.72878        0.92845        2.02188
H         -0.72878        0.92845       -2.02188
H         -0.71068        3.39720       -2.02964
H          0.72878       -0.92845       -2.02188
H          0.71068       -3.39720       -2.02964
H         -0.00000       -4.65049        0.00000
H         -0.71068       -3.39720        2.02964
H         -0.72878       -0.92845        2.02188
