17
/scratch/dz1061/gcn/chemGraph/data/deepchem/freesol/split/QM_opt/gjf/32.log	Energy: -217756.3736714
C         -3.24733       -0.29033        0.00001
C         -1.89534        0.42863        0.00000
C         -0.71620       -0.54674       -0.00000
C          0.63173        0.14752       -0.00001
O          0.81327        1.34556       -0.00000
O          1.63966       -0.75781       -0.00000
C          2.96409       -0.20329        0.00001
H         -3.36102       -0.92892       -0.88485
H         -3.36101       -0.92892        0.88486
H         -4.07486        0.42758        0.00001
H         -1.81703        1.08505        0.87449
H         -1.81704        1.08505       -0.87449
H         -0.75236       -1.21215       -0.87337
H         -0.75235       -1.21215        0.87336
H          3.64120       -1.05825        0.00001
H          3.12462        0.41300       -0.88894
H          3.12461        0.41301        0.88896
