9
/scratch/dz1061/gcn/chemGraph/data/deepchem/freesol/split/QM_opt/gjf/321.log	Energy: -299958.2002391
C          0.00000       -0.51550        1.39411
S         -0.00000        0.66386       -0.00000
C          0.00000       -0.51550       -1.39411
H         -0.00000        0.07495        2.31415
H          0.89452       -1.14641        1.38099
H         -0.89452       -1.14641        1.38099
H         -0.00000        0.07495       -2.31415
H         -0.89452       -1.14641       -1.38099
H          0.89452       -1.14641       -1.38099
