18
/scratch/dz1061/gcn/chemGraph/data/deepchem/freesol/split/QM_opt/gjf/325.log	Energy: -148000.2492720
C          2.75641       -0.04206        0.01192
C          1.31905        0.19502       -0.46201
C          0.27095       -0.32690        0.54150
C         -1.16510       -0.13515        0.09907
C         -1.94582       -1.17569       -0.21075
C         -1.67412        1.28510        0.03068
H          2.94856        0.46488        0.96570
H          2.95410       -1.11081        0.16038
H          3.48358        0.33308       -0.71719
H          1.16731        1.26842       -0.63499
H          1.16018       -0.29887       -1.42977
H          0.42677        0.18490        1.50438
H          0.45583       -1.39351        0.72274
H         -1.58341       -2.19951       -0.15358
H         -2.97642       -1.04402       -0.53207
H         -2.72804        1.32157       -0.26166
H         -1.57211        1.78577        1.00363
H         -1.10459        1.88625       -0.69007
