42
/scratch/dz1061/gcn/chemGraph/data/deepchem/freesol/split/QM_opt/gjf/327.log	Energy: -954020.9490298
C          1.90957        0.16006        3.19999
C          1.82374        1.42291        2.33600
C          2.55870        1.32361        0.99301
N          2.06338        0.25914        0.09739
C          2.96387       -0.04363       -1.04548
C          4.23531       -0.80334       -0.65741
C          5.08287       -1.13186       -1.89201
C          0.68511        0.15121       -0.13675
C          0.03785       -1.10674       -0.04404
C         -1.33801       -1.27865       -0.10587
C         -2.14966       -0.16030       -0.27841
C         -1.58875        1.10540       -0.39193
C         -0.20323        1.23476       -0.34674
N          0.30681        2.59007       -0.61738
O         -0.29710        3.53036       -0.10535
O          1.27201        2.69294       -1.37176
S         -3.94225       -0.36149       -0.37017
O         -4.19742       -1.74767       -0.78465
O         -4.46850        0.78343       -1.12493
C         -4.48188       -0.18852        1.34818
N          0.81643       -2.32505        0.24365
O          0.51596       -2.93386        1.26797
O          1.67357       -2.66819       -0.56313
H          1.42970       -0.70064        2.72408
H          1.42243        0.32012        4.16810
H          2.95426       -0.11138        3.39368
H          0.77391        1.70405        2.18186
H          2.27444        2.26730        2.87328
H          3.60139        1.06245        1.19797
H          2.58112        2.30269        0.49385
H          3.21883        0.90295       -1.54567
H          2.39769       -0.64134       -1.76220
H          3.95254       -1.72541       -0.13907
H          4.83786       -0.21217        0.04367
H          5.99753       -1.66285       -1.60813
H          5.37885       -0.22284       -2.42989
H          4.53126       -1.77013       -2.59232
H         -1.77151       -2.26772       -0.00507
H         -2.20908        1.97939       -0.55582
H         -4.01954       -0.97142        1.95253
H         -4.21484        0.80544        1.71222
H         -5.56822       -0.30932        1.33761
