6
/scratch/dz1061/gcn/chemGraph/data/deepchem/freesol/split/QM_opt/gjf/328.log	Energy: -337716.4292927
C          1.64409       -0.28470        0.00000
C          0.57655        0.50396        0.00000
Cl        -1.06758       -0.09971        0.00000
H          1.57077       -1.36714        0.00000
H          2.63521        0.15944       -0.00000
H          0.61910        1.58726       -0.00000
