25
/scratch/dz1061/gcn/chemGraph/data/deepchem/freesol/split/QM_opt/gjf/329.log	Energy: -325604.1847475
C          4.27547       -0.34719        0.04577
C          2.78376       -0.11824       -0.01664
C          1.92867       -1.06736       -0.58931
C          0.54782       -0.87105       -0.61568
C         -0.01553        0.29241       -0.07652
C          0.83879        1.26193        0.46665
C          2.21310        1.05156        0.50764
C         -1.48070        0.62200       -0.17270
O         -1.83028        1.75946       -0.48284
N         -2.40046       -0.38545        0.03908
C         -3.80485       -0.07523       -0.19311
C         -2.16386       -1.57003        0.85278
H          4.58159       -0.70070        1.03950
H          4.83118        0.57606       -0.15243
H          4.59692       -1.09912       -0.68211
H          2.34844       -1.97006       -1.02753
H         -0.09031       -1.61507       -1.08445
H          0.40840        2.18500        0.84208
H          2.85835        1.81193        0.94229
H         -4.31052        0.22394        0.73667
H         -4.31053       -0.96209       -0.59234
H         -3.87474        0.74612       -0.90476
H         -2.78420       -1.53299        1.76000
H         -1.11999       -1.62931        1.15590
H         -2.42521       -2.48405        0.30303
