18
/scratch/dz1061/gcn/chemGraph/data/deepchem/freesol/split/QM_opt/gjf/331.log	Energy: -288735.1459614
C          3.39439       -0.54804        0.00001
O          1.97309       -0.74369       -0.00000
C          1.23485        0.39158       -0.00002
O          1.73012        1.50175       -0.00000
C         -0.23029        0.11910       -0.00001
C         -1.09862        1.21918       -0.00000
C         -2.47704        1.02130        0.00001
C         -2.99624       -0.27613        0.00001
C         -2.13371       -1.37511        0.00000
C         -0.75331       -1.18157       -0.00001
H          3.82809       -1.54865        0.00002
H          3.70632        0.00655        0.88916
H          3.70634        0.00655       -0.88914
H         -0.67252        2.21706       -0.00000
H         -3.14678        1.87683        0.00001
H         -4.07202       -0.43071        0.00001
H         -2.53699       -2.38404        0.00000
H         -0.07830       -2.03000       -0.00001
