23
/scratch/dz1061/gcn/chemGraph/data/deepchem/freesol/split/QM_opt/gjf/332.log	Energy: -267099.0617653
C         -4.28203       -0.59404       -0.00000
C         -3.03652        0.29677        0.00000
C         -1.73902       -0.51450        0.00000
C         -0.49351        0.35153        0.00000
O         -0.47544        1.56355       -0.00000
O          0.62378       -0.41261        0.00000
C          1.87926        0.30088       -0.00000
C          2.99901       -0.72873        0.00000
C          4.38187       -0.06865       -0.00000
H         -4.31054       -1.24210        0.88484
H         -4.31054       -1.24210       -0.88484
H         -5.19707        0.00844       -0.00000
H         -3.04543        0.95787        0.87443
H         -3.04543        0.95787       -0.87443
H         -1.68747       -1.17891        0.87338
H         -1.68747       -1.17891       -0.87338
H          1.92212        0.94857        0.88301
H          1.92212        0.94857       -0.88302
H          2.88809       -1.37449        0.87995
H          2.88809       -1.37449       -0.87995
H          4.52367        0.56303       -0.88518
H          5.17513       -0.82346        0.00000
H          4.52367        0.56303        0.88517
