40
/scratch/dz1061/gcn/chemGraph/data/deepchem/freesol/split/QM_opt/gjf/334.log	Energy: -1567149.2825440
C          4.74751        2.23705        1.14404
C          4.43224        0.80328        0.76535
O          3.19629        0.81347       -0.00833
P          2.64485       -0.56252       -0.66383
S          3.76988       -1.50732       -1.93007
O          2.24795       -1.34568        0.70208
C          1.77601       -2.72160        0.67969
C          1.55613       -3.15259        2.11638
S          0.83629        0.09923       -1.53231
C         -0.05926        0.80240       -0.02830
C          0.16958        2.31095        0.00803
Cl        -0.56178        3.04053        1.50591
N         -1.44763        0.41744       -0.06055
C         -2.41619        0.89616       -0.97010
O         -2.21288        1.70673       -1.85031
C         -3.67878        0.18827       -0.61754
C         -4.94472        0.29597       -1.17437
C         -5.95533       -0.51045       -0.63506
C         -5.69213       -1.39024        0.42318
C         -4.40941       -1.49313        0.97664
C         -3.41606       -0.68927        0.43628
C         -1.97650       -0.57408        0.79647
O         -1.34235       -1.18405        1.63267
H          5.67511        2.26757        1.72642
H          4.87986        2.85407        0.25002
H          3.94526        2.66730        1.75198
H          4.28043        0.17337        1.64728
H          5.22292        0.36601        0.14714
H          0.84260       -2.75833        0.10773
H          2.52654       -3.33536        0.17206
H          2.48567       -3.08141        2.69028
H          1.21694       -4.19440        2.13662
H          0.79239       -2.52929        2.58881
H          0.36815        0.32145        0.85321
H         -0.28495        2.80577       -0.84748
H          1.23935        2.50795        0.04485
H         -5.13687        0.98011       -1.99486
H         -6.96037       -0.45436       -1.04314
H         -6.49715       -2.00255        0.81916
H         -4.19433       -2.17204        1.79583
