21
/scratch/dz1061/gcn/chemGraph/data/deepchem/freesol/split/QM_opt/gjf/338.log	Energy: -219755.3831314
C         -1.00259        2.74463        0.01307
C         -0.48366        1.32401       -0.00915
C          0.89135        1.06480       -0.01191
C          1.38847       -0.24314       -0.00914
C          0.47647       -1.30433       -0.01190
C         -0.90480       -1.08087       -0.00914
C         -1.36783        0.23953       -0.01188
C         -1.87563       -2.24058        0.01306
C          2.87823       -0.50405        0.01308
H         -1.97497        2.82444       -0.48503
H         -0.31063        3.43241       -0.48508
H         -1.13402        3.10454        1.04228
H          1.59024        1.89968       -0.02437
H          0.85006       -2.32703       -0.02434
H         -2.44030        0.42735       -0.02431
H         -1.45860       -3.12258       -0.48510
H         -2.12158       -2.53441        1.04227
H         -2.81726       -1.98516       -0.48504
H          3.43354        0.29811       -0.48508
H          3.12785       -1.44724       -0.48501
H          3.25566       -0.57011        1.04229
