22
/scratch/dz1061/gcn/chemGraph/data/deepchem/freesol/split/QM_opt/gjf/34.log	Energy: -183498.4023455
C          3.77336       -0.28646        0.00051
C          2.46930        0.51583       -0.03882
C          1.22250       -0.36916        0.01987
N          0.00000        0.42626       -0.06284
C         -1.22250       -0.36916        0.01987
C         -2.46930        0.51583       -0.03882
C         -3.77336       -0.28646        0.00051
H          3.84083       -0.97567       -0.85018
H          3.84774       -0.88421        0.91730
H          4.64687        0.37375       -0.03743
H          2.44972        1.22196        0.80479
H          2.42258        1.12341       -0.95091
H          1.26220       -1.00220        0.93035
H          1.22822       -1.06262       -0.83307
H          0.00000        1.10478        0.69942
H         -1.26220       -1.00220        0.93035
H         -1.22822       -1.06262       -0.83307
H         -2.44972        1.22196        0.80479
H         -2.42258        1.12341       -0.95091
H         -3.84083       -0.97567       -0.85018
H         -3.84774       -0.88421        0.91730
H         -4.64687        0.37375       -0.03743
