29
/scratch/dz1061/gcn/chemGraph/data/deepchem/freesol/split/QM_opt/gjf/351.log	Energy: -503748.3677960
C          4.22475       -0.43832        0.59490
C          2.92394       -1.14672        0.32401
O          2.41539       -1.99419        1.02221
O          2.35382       -0.68351       -0.82545
C          1.02964       -1.16042       -1.10092
C         -0.00862       -0.35647       -0.31868
C         -1.41784       -0.84801       -0.59566
O         -2.30005       -0.14918        0.29780
C         -3.61473       -0.46611        0.18612
O         -4.03688       -1.27937       -0.60491
C         -4.44144        0.32561        1.17058
O          0.05409        1.02541       -0.73675
C          0.75244        1.89287        0.03960
O          1.33310        1.58662        1.05728
C          0.69687        3.28176       -0.55018
H          4.80330       -0.30928       -0.32374
H          4.79812       -0.99684        1.33586
H          3.99149        0.55629        0.99192
H          0.95513       -2.22065       -0.84490
H          0.89206       -1.02283       -2.17624
H          0.20989       -0.41193        0.74944
H         -1.71342       -0.65185       -1.63123
H         -1.49328       -1.92576       -0.41698
H         -4.10690        0.12117        2.19288
H         -5.49189        0.05426        1.06208
H         -4.31297        1.39848        0.99377
H         -0.34323        3.59476       -0.68493
H          1.17026        3.28506       -1.53782
H          1.21555        3.97775        0.10975
