20
/scratch/dz1061/gcn/chemGraph/data/deepchem/freesol/split/QM_opt/gjf/356.log	Energy: -229817.2878021
C          2.53326       -0.71826        0.02098
C          1.22556        0.03607        0.00000
C          1.20158        1.43272       -0.00696
C          0.00000        2.13927       -0.01371
C         -1.20158        1.43272       -0.00696
C         -1.22556        0.03607        0.00000
C          0.00000       -0.66617       -0.00216
N          0.00000       -2.06821        0.06032
C         -2.53326       -0.71826        0.02098
H          3.38188       -0.02902        0.05996
H          2.66828       -1.34409       -0.87475
H          2.60423       -1.38531        0.89086
H          2.14711        1.97091       -0.00643
H          0.00000        3.22545       -0.01840
H         -2.14711        1.97091       -0.00643
H          0.83329       -2.50895       -0.30807
H         -0.83329       -2.50895       -0.30807
H         -2.60423       -1.38531        0.89086
H         -2.66828       -1.34409       -0.87475
H         -3.38188       -0.02902        0.05996
