5
/scratch/dz1061/gcn/chemGraph/data/deepchem/freesol/split/QM_opt/gjf/36.log	Energy: -274520.5035676
C          0.00000        0.00000        0.00000
F          0.76751        0.76751        0.76751
F         -0.76751       -0.76751        0.76751
F          0.76751       -0.76751       -0.76751
F         -0.76751        0.76751       -0.76751
