40
/scratch/dz1061/gcn/chemGraph/data/deepchem/freesol/split/QM_opt/gjf/365.log	Energy: -820500.2838639
C          4.75467       -1.98823       -1.64190
C          3.96785       -1.27834       -0.53383
C          2.68879       -0.64055       -1.08390
N          1.83226       -0.01148       -0.04868
C          2.36151        1.22848        0.55148
C          1.78185        1.51544        1.92114
C          2.00872        2.86938        2.54974
C          0.62057        2.46586        2.12495
C          0.44160       -0.12897       -0.21341
C         -0.26338       -1.24389        0.30489
C         -1.64927       -1.34893        0.30803
C         -2.42203       -0.32755       -0.23732
C         -1.79184        0.79378       -0.76595
C         -0.40235        0.86223       -0.77120
N          0.15870        2.03071       -1.47127
O          1.13265        1.84996       -2.19809
O         -0.41486        3.10879       -1.31709
C         -3.92675       -0.40703       -0.19423
F         -4.35273       -1.68506       -0.26131
F         -4.41457        0.11800        0.94976
F         -4.48508        0.27269       -1.21666
N          0.44957       -2.34954        0.96399
O          0.00835       -2.71865        2.05086
O          1.40625       -2.84964        0.38070
H          5.67735       -2.42674       -1.24730
H          4.16609       -2.79831       -2.08879
H          5.03282       -1.29497       -2.44529
H          4.61000       -0.51660       -0.07343
H          3.69851       -1.98899        0.25377
H          2.09111       -1.41339       -1.57230
H          2.93327        0.10918       -1.85078
H          2.26045        2.10723       -0.10374
H          3.43680        1.05845        0.65756
H          1.82768        0.66281        2.59642
H          2.51629        3.62717        1.95746
H          2.24211        2.90739        3.60985
H         -0.10736        2.22347        2.89435
H          0.19849        2.96372        1.25596
H         -2.11177       -2.21892        0.75882
H         -2.36298        1.60607       -1.19901
