13
/scratch/dz1061/gcn/chemGraph/data/deepchem/freesol/split/QM_opt/gjf/370.log	Energy: -192937.1107925
C          1.85754        0.02758       -0.00000
C          1.13182        1.21940        0.00000
C         -0.26366        1.19967        0.00000
C         -0.94095       -0.02464       -0.00000
C         -0.22111       -1.22417       -0.00000
C          1.17165       -1.19036        0.00000
O         -2.30763       -0.11171        0.00000
H          2.94336        0.04671        0.00000
H          1.65014        2.17463        0.00000
H         -0.82627        2.13219        0.00000
H         -0.76523       -2.16344       -0.00000
H          1.72503       -2.12578        0.00000
H         -2.67769        0.78447       -0.00000
