9
/scratch/dz1061/gcn/chemGraph/data/deepchem/freesol/split/QM_opt/gjf/371.log	Energy: -107974.7178883
C         -1.51955        0.56749        0.00000
C          0.00000        0.81283        0.00000
C          0.77299       -0.43413       -0.00000
N          1.37007       -1.42962       -0.00000
H         -1.82481        0.00371        0.88626
H         -2.04851        1.52558        0.00000
H         -1.82481        0.00371       -0.88626
H          0.29350        1.39860       -0.87968
H          0.29350        1.39860        0.87968
