11
/scratch/dz1061/gcn/chemGraph/data/deepchem/freesol/split/QM_opt/gjf/375.log	Energy: -1688156.6619171
C         -3.01910        0.03584        0.00000
C         -1.58087       -0.50069        0.00000
C         -0.56695        0.63376        0.00000
Br         1.29393       -0.05076        0.00000
H         -3.21773        0.65055        0.88601
H         -3.73791       -0.79062       -0.00000
H         -3.21773        0.65055       -0.88601
H         -1.41378       -1.13325       -0.87941
H         -1.41378       -1.13325        0.87941
H         -0.64251        1.25952        0.89054
H         -0.64251        1.25952       -0.89054
