11
/scratch/dz1061/gcn/chemGraph/data/deepchem/freesol/split/QM_opt/gjf/376.log	Energy: -363167.0922582
C         -1.06879        1.27470       -0.12045
C         -0.41951        0.00000        0.40168
C         -1.06879       -1.27470       -0.12045
Cl         1.36469        0.00000       -0.05641
H         -0.56854        2.16525        0.26981
H         -2.11971        1.30228        0.19430
H         -1.03601        1.30916       -1.21427
H         -0.40863        0.00000        1.49459
H         -1.03601       -1.30916       -1.21427
H         -2.11971       -1.30228        0.19430
H         -0.56854       -2.16525        0.26981
