14
/scratch/dz1061/gcn/chemGraph/data/deepchem/freesol/split/QM_opt/gjf/380.log	Energy: -468873.7947887
C          1.10881        1.20684       -0.00621
C         -0.28351        1.20935       -0.00328
C         -0.97629        0.00000       -0.00126
C         -0.28351       -1.20935       -0.00328
C          1.10881       -1.20684       -0.00621
C          1.82875        0.00000       -0.00781
N          3.22495        0.00000       -0.07160
Cl        -2.73909        0.00000        0.00681
H          1.64542        2.15278       -0.01252
H         -0.82785        2.14799       -0.00008
H         -0.82785       -2.14799       -0.00008
H          1.64542       -2.15278       -0.01252
H          3.66827        0.83575        0.28952
H          3.66827       -0.83575        0.28952
