12
/scratch/dz1061/gcn/chemGraph/data/deepchem/freesol/split/QM_opt/gjf/382.log	Energy: -213682.4005578
C         -0.11365       -1.20614        0.00000
C         -1.50621       -1.14397        0.00000
N         -2.20268       -0.00000        0.00000
C         -1.50621        1.14397        0.00000
C         -0.11365        1.20614        0.00000
C          0.60153        0.00000       -0.00000
C          2.03733        0.00000        0.00000
N          3.20006       -0.00000        0.00000
H          0.40392       -2.15929        0.00000
H         -2.09218       -2.06082       -0.00000
H         -2.09218        2.06082        0.00000
H          0.40392        2.15929       -0.00000
