23
/scratch/dz1061/gcn/chemGraph/data/deepchem/freesol/split/QM_opt/gjf/383.log	Energy: -243798.8064735
C         -2.61260        0.72385       -0.23021
C         -1.51382       -0.32279       -0.09387
O         -1.56391       -1.35515       -0.73811
C         -0.38082       -0.03329        0.89991
C          0.67875       -1.15086        0.92575
C          1.59881       -1.12675       -0.30655
C          2.23788        0.25397       -0.51876
C          1.17206        1.35850       -0.58540
C          0.28284        1.34791        0.66766
H         -2.87492        1.17571        0.73287
H         -3.49348        0.26193       -0.68128
H         -2.27434        1.53489       -0.88781
H         -0.88075        0.00698        1.88204
H          1.28505       -1.02323        1.83383
H          0.18335       -2.12410        1.00158
H          1.01249       -1.40067       -1.19150
H          2.37922       -1.89053       -0.19660
H          2.92632        0.47209        0.31187
H          2.84328        0.25603       -1.43408
H          0.55168        1.21058       -1.48211
H          1.64569        2.34249       -0.69453
H         -0.47350        2.13997        0.61345
H          0.90257        1.57581        1.54593
