17
/scratch/dz1061/gcn/chemGraph/data/deepchem/freesol/split/QM_opt/gjf/384.log	Energy: -241521.1801725
C         -0.11675        2.40832       -0.00000
C          0.36917        0.97356       -0.00000
C          1.74431        0.71357        0.00000
C          2.23995       -0.59106        0.00000
C          1.36185       -1.67757       -0.00000
C         -0.00768       -1.44211       -0.00000
C         -0.51266       -0.13217       -0.00001
C         -1.98512        0.03961       -0.00001
O         -2.78302       -0.88133        0.00001
H         -0.72579        2.63795       -0.88217
H         -0.72580        2.63795        0.88216
H          0.73334        3.09696        0.00000
H          2.43906        1.55004        0.00001
H          3.31411       -0.75722        0.00001
H          1.74445       -2.69428       -0.00000
H         -0.72203       -2.25970       -0.00001
H         -2.35163        1.08608        0.00001
