12
/scratch/dz1061/gcn/chemGraph/data/deepchem/freesol/split/QM_opt/gjf/387.log	Energy:  -98661.6140609
C         -1.27805       -0.67911        0.00000
C          0.00000        0.12321       -0.00000
C          0.00000        1.45968        0.00000
C          1.27805       -0.67911        0.00000
H         -1.33236       -1.33487        0.88012
H         -2.16330       -0.03557       -0.00000
H         -1.33236       -1.33487       -0.88012
H          0.92493        2.03129        0.00000
H         -0.92493        2.03129       -0.00000
H          2.16330       -0.03557        0.00000
H          1.33236       -1.33487        0.88012
H          1.33236       -1.33487       -0.88012
