21
/scratch/dz1061/gcn/chemGraph/data/deepchem/freesol/split/QM_opt/gjf/39.log	Energy: -336660.6011378
C         -3.40485       -0.73867       -0.00000
O         -2.02136       -1.05197        0.00000
C         -1.11770       -0.01027        0.00000
C         -1.44197        1.34200        0.00000
C         -0.39806        2.27453       -0.00000
C          0.92371        1.85466       -0.00000
C          1.25652        0.48851        0.00000
C          0.22054       -0.45711        0.00000
O          0.45982       -1.80966        0.00000
O          2.59829        0.23523        0.00000
C          3.11964       -1.09253       -0.00000
H         -3.68334       -0.16780        0.89496
H         -3.93206       -1.69447       -0.00000
H         -3.68333       -0.16780       -0.89497
H         -2.47461        1.67057        0.00000
H         -0.62695        3.33609       -0.00000
H          1.74336        2.56568       -0.00000
H         -0.41689       -2.23339        0.00000
H          4.20504       -0.96671       -0.00000
H          2.81395       -1.64885        0.89074
H          2.81394       -1.64884       -0.89075
