20
/scratch/dz1061/gcn/chemGraph/data/deepchem/freesol/split/QM_opt/gjf/392.log	Energy: -450436.0586698
C          2.25631        2.13433       -0.03847
C          1.31734        0.96738        0.24322
C         -0.13075        1.25221       -0.16100
C         -1.07537        0.10196        0.17353
O         -2.39017        0.58076       -0.18960
N         -3.42491       -0.36161        0.03708
O         -3.10972       -1.43531        0.50877
O         -4.51098        0.05570       -0.28085
O          1.69593       -0.19559       -0.55903
N          2.77349       -0.96522       -0.04729
O          3.25857       -0.63133        1.01541
O          3.06255       -1.88642       -0.76912
H          2.22925        2.40335       -1.09946
H          3.28256        1.88007        0.23779
H          1.95333        3.00736        0.54950
H          1.37215        0.67523        1.29577
H         -0.17888        1.47088       -1.23349
H         -0.45552        2.15483        0.36922
H         -0.83938       -0.79899       -0.39692
H         -1.05827       -0.14270        1.24081
