14
/scratch/dz1061/gcn/chemGraph/data/deepchem/freesol/split/QM_opt/gjf/394.log	Energy: -1716034.5051546
C         -1.21863        0.00074        0.00000
C         -0.54481       -1.21804        0.00000
C          0.85843       -1.22172        0.00000
C          1.55763       -0.00075        0.00000
C          0.85973        1.22097        0.00000
C         -0.54351        1.21880        0.00000
Cl        -1.44978        2.69644        0.00000
Cl         1.71964        2.72367        0.00000
Cl         3.29013       -0.00167       -0.00000
Cl         1.71674       -2.72533       -0.00000
Cl        -1.45267       -2.69470       -0.00000
N         -2.70071        0.00153       -0.00000
O         -3.24482        0.00103       -1.09525
O         -3.24482        0.00103        1.09525
