10
/scratch/dz1061/gcn/chemGraph/data/deepchem/freesol/split/QM_opt/gjf/40.log	Energy:  -97870.6931731
C          1.52762        0.65160       -0.00000
C         -0.00000        0.84808        0.00000
C         -0.74027       -0.41545        0.00000
C         -1.33425       -1.46711        0.00000
H          2.03533        1.62221       -0.00000
H          1.84882        0.09408       -0.88537
H          1.84882        0.09408        0.88537
H         -0.29461        1.44009        0.87724
H         -0.29461        1.44009       -0.87724
H         -1.86238       -2.39320        0.00000
