15
/scratch/dz1061/gcn/chemGraph/data/deepchem/freesol/split/QM_opt/gjf/413.log	Energy: -180593.1012242
C          1.20539       -0.71853       -0.20003
C          1.17467        0.75601        0.19793
O         -0.00000        1.39387       -0.29131
C         -1.17467        0.75601        0.19793
C         -1.20539       -0.71853       -0.20003
N          0.00000       -1.36437        0.32708
H          2.09058       -1.20190        0.23075
H          1.28210       -0.78280       -1.30220
H          2.02174        1.29785       -0.23381
H          1.22091        0.83810        1.29628
H         -2.02174        1.29785       -0.23381
H         -1.22091        0.83810        1.29628
H         -1.28210       -0.78280       -1.30220
H         -2.09058       -1.20190        0.23075
H          0.00000       -2.35259        0.08422
