22
/scratch/dz1061/gcn/chemGraph/data/deepchem/freesol/split/QM_opt/gjf/414.log	Energy: -243164.7703814
C          3.19218       -0.97667       -0.17934
C          1.76665       -0.78656        0.31077
O          1.30692        0.48255       -0.15220
C          0.02359        0.82731        0.27244
C         -0.23485        2.25876       -0.17377
O         -0.90742       -0.07805       -0.31099
C         -2.11429       -0.25669        0.41483
C         -2.92789       -1.33897       -0.27690
H          3.84320       -0.18389        0.20356
H          3.22731       -0.94988       -1.27323
H          3.58503       -1.94274        0.15678
H          1.72589       -0.81355        1.41296
H          1.11090       -1.58076       -0.06607
H         -0.04979        0.73579        1.37469
H          0.49150        2.93857        0.28211
H         -1.24173        2.57834        0.11350
H         -0.14220        2.31700       -1.26216
H         -1.89179       -0.54523        1.45630
H         -2.69003        0.68228        0.45546
H         -3.15667       -1.04687       -1.30674
H         -2.36908       -2.28006       -0.30462
H         -3.87086       -1.50809        0.25480
