12
/scratch/dz1061/gcn/chemGraph/data/deepchem/freesol/split/QM_opt/gjf/417.log	Energy: -324628.2528189
C         -1.84693        0.55947       -0.26352
C         -0.96122       -0.42528        0.49916
S          0.70999       -0.68659       -0.21994
C          1.49272        0.92598        0.13600
H         -2.83419        0.62805        0.21083
H         -1.41617        1.56642       -0.27434
H         -1.98473        0.23984       -1.30119
H         -1.41311       -1.42306        0.50208
H         -0.84595       -0.12322        1.54693
H          1.00671        1.74548       -0.40082
H          1.49115        1.13650        1.21039
H          2.52903        0.85427       -0.20472
