25
/scratch/dz1061/gcn/chemGraph/data/deepchem/freesol/split/QM_opt/gjf/423.log	Energy: -385277.9732416
C          5.29253       -0.65322        0.00000
C          3.79538       -0.97962        0.00000
C          2.94143        0.27912       -0.00000
O          1.55777       -0.12798       -0.00000
C          0.64694        0.87482       -0.00001
O          0.95734        2.05180       -0.00000
C         -0.75045        0.37279       -0.00000
C         -1.78834        1.31426        0.00000
C         -3.11632        0.90535        0.00000
C         -3.42244       -0.46216        0.00000
C         -2.39346       -1.41312       -0.00000
C         -1.06937       -0.99472       -0.00000
O         -4.70374       -0.92718        0.00000
H          5.57487       -0.07071       -0.88520
H          5.89211       -1.56947        0.00001
H          5.57487       -0.07071        0.88521
H          3.54008       -1.58265        0.88029
H          3.54008       -1.58265       -0.88029
H          3.13057        0.89987        0.88302
H          3.13057        0.89987       -0.88302
H         -1.53315        2.36884        0.00000
H         -3.91737        1.64247        0.00001
H         -2.65286       -2.46686       -0.00000
H         -0.27113       -1.72840       -0.00001
H         -5.31506       -0.17378        0.00001
