19
/scratch/dz1061/gcn/chemGraph/data/deepchem/freesol/split/QM_opt/gjf/425.log	Energy: -158829.6327823
C         -3.20132       -0.21984        0.01976
C         -1.87491        0.54533       -0.02733
C         -0.64539       -0.37136        0.01526
C          0.68497        0.38919       -0.03632
C          1.91007       -0.52585        0.01599
N          3.14741        0.25855       -0.08563
H         -3.29218       -0.90831       -0.82954
H         -4.05879        0.46213       -0.01177
H         -3.28330       -0.81566        0.93735
H         -1.82903        1.25105        0.81438
H         -1.83720        1.15801       -0.93909
H         -0.69340       -1.07840       -0.82651
H         -0.68387       -0.98438        0.92835
H          0.73046        1.09856        0.80482
H          0.74263        0.99334       -0.95096
H          1.85166       -1.15577        0.92405
H          1.88368       -1.21337       -0.83973
H          3.24440        0.84432        0.74364
H          3.95250       -0.36614       -0.07970
