22
/scratch/dz1061/gcn/chemGraph/data/deepchem/freesol/split/QM_opt/gjf/427.log	Energy: -243158.2999738
C          4.07526        0.59572        0.12577
C          2.91388       -0.33164       -0.24641
C          1.54877        0.22157        0.18172
C          0.39378       -0.69995       -0.18876
O         -0.82086       -0.10941        0.24780
C         -1.97630       -0.87510       -0.05998
C         -3.17594       -0.02606        0.33285
O         -3.18526        1.20280       -0.37263
H          3.96602        1.57771       -0.35025
H          5.03688        0.17657       -0.19083
H          4.12161        0.75678        1.20962
H          3.07060       -1.31637        0.21618
H          2.91569       -0.50097       -1.33248
H          1.53261        0.38399        1.26751
H          1.37852        1.20144       -0.28424
H          0.52206       -1.68848        0.28468
H          0.36312       -0.86416       -1.27965
H         -1.97191       -1.83199        0.48885
H         -2.01019       -1.09643       -1.13906
H         -4.10406       -0.55045        0.08196
H         -3.16047        0.13591        1.42315
H         -2.28820        1.56206       -0.26800
