27
/scratch/dz1061/gcn/chemGraph/data/deepchem/freesol/split/QM_opt/gjf/428.log	Energy: -2069747.4662677
C         -2.84418        0.00000        0.92751
C         -2.45098       -1.14045       -0.02954
C         -1.01818       -0.78795       -0.54286
C         -1.01818        0.78795       -0.54285
C         -2.45098        1.14045       -0.02954
C         -3.27987        0.73733       -1.27455
C         -3.27987       -0.73733       -1.27455
O         -4.48436        0.00000       -1.02452
C          0.36019        1.13156        0.14218
C          1.35942        0.67032       -0.94078
C          1.35942       -0.67032       -0.94078
C          0.36019       -1.13156        0.14217
C          0.67596       -0.00000        1.18772
Cl         2.41958       -0.00000        1.70721
Cl        -0.21662       -0.00001        2.73197
Cl         0.53155       -2.80303        0.71454
Cl         2.16174       -1.73205       -2.02014
Cl         2.16174        1.73205       -2.02013
Cl         0.53155        2.80303        0.71456
H         -3.91692        0.00000        1.12344
H         -2.31692        0.00000        1.86788
H         -2.57974       -2.16504        0.32459
H         -0.92261       -1.19524       -1.55434
H         -0.92261        1.19524       -1.55434
H         -2.57974        2.16504        0.32460
H         -3.27328        1.34328       -2.17834
H         -3.27328       -1.34328       -2.17834
