14
/scratch/dz1061/gcn/chemGraph/data/deepchem/freesol/split/QM_opt/gjf/431.log	Energy: -216345.8097607
C         -1.45583       -0.26313        0.58224
C         -0.00466        0.21598        0.61061
C          0.95908       -0.80035        0.00260
O          2.21564       -0.12793       -0.13749
O          0.02912        1.41789       -0.15664
O         -1.91403       -0.42300       -0.74996
H         -2.07541        0.46131        1.13366
H         -1.55100       -1.23508        1.07901
H          0.29765        0.41798        1.65140
H          1.04954       -1.67947        0.65774
H          0.56812       -1.12312       -0.97055
H          2.76116       -0.62435       -0.76459
H          0.96317        1.53205       -0.40818
H         -1.65059        0.40002       -1.19841
