14
/scratch/dz1061/gcn/chemGraph/data/deepchem/freesol/split/QM_opt/gjf/433.log	Energy: -156679.9927999
C          2.20319       -0.25707        0.07499
O          0.86441       -0.26851       -0.36778
C          0.06768        0.73201        0.24736
C         -1.36454        0.54344       -0.22488
N         -1.88043       -0.73774        0.26183
H          2.72661       -1.06030       -0.45080
H          2.27612       -0.43274        1.16047
H          2.70003        0.70037       -0.15291
H          0.11171        0.63502        1.34424
H          0.43457        1.73633       -0.02555
H         -1.97650        1.35293        0.19299
H         -1.38027        0.65565       -1.32396
H         -2.80663       -0.90899       -0.12532
H         -1.27590       -1.47631       -0.09465
