13
/scratch/dz1061/gcn/chemGraph/data/deepchem/freesol/split/QM_opt/gjf/438.log	Energy: -169145.7528510
C          2.17168       -0.22865        0.07591
O          0.82703       -0.25736       -0.35542
C          0.02579        0.75848        0.23014
C         -1.40431        0.49365       -0.21485
O         -1.84352       -0.78567        0.20698
H          2.66346        0.71873       -0.19553
H          2.25154       -0.36145        1.16644
H          2.68934       -1.05224       -0.42287
H          0.36233        1.75844       -0.09232
H          0.09240        0.70936        1.32926
H         -2.07791        1.23097        0.23439
H         -1.46531        0.59971       -1.31034
H         -1.14284       -1.40013       -0.06874
