12
/scratch/dz1061/gcn/chemGraph/data/deepchem/freesol/split/QM_opt/gjf/450.log	Energy: -121958.5426389
C          1.32672       -0.55919       -0.08876
C          0.00180        0.04194        0.36516
C         -1.20430       -0.77498       -0.10343
O         -0.03758        1.37008       -0.16598
H          1.35989       -0.61970       -1.18249
H          1.45836       -1.56633        0.32149
H          2.16108        0.06605        0.24418
H         -0.00608        0.08409        1.46822
H         -1.21933       -0.83510       -1.19759
H         -1.17663       -1.79325        0.30204
H         -2.14480       -0.31357        0.22562
H         -0.87721        1.77058        0.10853
