21
/scratch/dz1061/gcn/chemGraph/data/deepchem/freesol/split/QM_opt/gjf/458.log	Energy: -195965.3695021
C         -3.71875       -0.21852        0.00000
C         -2.38520        0.53481        0.00000
C         -1.18338       -0.40201       -0.00000
O          0.00000        0.37529       -0.00000
C          1.18338       -0.40201        0.00000
C          2.38520        0.53481       -0.00000
C          3.71875       -0.21852        0.00000
H         -4.56390        0.47809        0.00000
H         -3.81690       -0.85900        0.88520
H         -3.81690       -0.85900       -0.88520
H         -2.31704        1.18679        0.87966
H         -2.31704        1.18679       -0.87966
H         -1.20933       -1.06024        0.88729
H         -1.20933       -1.06024       -0.88729
H          1.20933       -1.06024       -0.88729
H          1.20933       -1.06024        0.88729
H          2.31704        1.18679       -0.87966
H          2.31704        1.18679        0.87966
H          4.56390        0.47809       -0.00000
H          3.81690       -0.85900       -0.88520
H          3.81690       -0.85900        0.88520
