31
/scratch/dz1061/gcn/chemGraph/data/deepchem/freesol/split/QM_opt/gjf/459.log	Energy: -293889.9706601
C          3.72864       -0.35758       -0.00078
C          2.24305       -0.26442        0.36544
C          1.44659       -1.48103       -0.13531
C         -0.04830       -1.36869        0.19994
C         -0.67825       -0.07587       -0.35840
C          0.10950        1.13840        0.16159
C          1.60322        1.02592       -0.17397
O         -0.45803        2.31085       -0.42986
C         -2.20929        0.05141       -0.12326
C         -2.99573       -0.99357       -0.93142
C         -2.62473        0.01025        1.35668
H          4.29080        0.50081        0.38655
H          3.86370       -0.37994       -1.08982
H          4.18194       -1.26793        0.40956
H          2.16500       -0.24557        1.46466
H          1.86048       -2.40198        0.29695
H          1.57198       -1.56502       -1.22570
H         -0.57969       -2.24315       -0.19344
H         -0.17076       -1.39891        1.29189
H         -0.53315       -0.08018       -1.45074
H          0.00139        1.18825        1.25938
H          2.13422        1.90361        0.22623
H          1.71082        1.06503       -1.26772
H          0.05324        3.07244       -0.11492
H         -2.48464        1.03887       -0.51158
H         -2.72351       -0.96511       -1.99367
H         -2.81971       -2.01363       -0.56812
H         -4.07376       -0.80584       -0.85948
H         -3.70213        0.19053        1.45231
H         -2.41689       -0.96481        1.81416
H         -2.11322        0.77676        1.94949
