21
/scratch/dz1061/gcn/chemGraph/data/deepchem/freesol/split/QM_opt/gjf/464.log	Energy: -172667.0226718
C          3.69765        0.20309       -0.12532
C          2.36349       -0.55017       -0.13303
C          1.15143        0.36381        0.08847
C         -0.18786       -0.38343        0.08124
C         -1.40080        0.54075        0.30211
C         -2.70771       -0.20349        0.34024
C         -3.72521       -0.02121       -0.50226
H          3.85874        0.71463        0.83172
H          4.54241       -0.47659       -0.28559
H          3.72793        0.96394       -0.91506
H          2.24726       -1.07961       -1.08936
H          2.37731       -1.32748        0.64427
H          1.26721        0.89405        1.04575
H          1.13812        1.14227       -0.68904
H         -0.31137       -0.91285       -0.87362
H         -0.17670       -1.15928        0.86092
H         -1.26036        1.07992        1.25212
H         -1.43304        1.30360       -0.48728
H         -2.79973       -0.95818        1.12413
H         -3.68015        0.71723       -1.30078
H         -4.64351       -0.59774       -0.42692
