20
/scratch/dz1061/gcn/chemGraph/data/deepchem/freesol/split/QM_opt/gjf/466.log	Energy: -336086.7440874
C          0.00002        1.70157        1.06192
C         -0.00000        0.47128        0.17842
O         -1.11786       -0.37228        0.47388
C         -2.24449       -0.17749       -0.26385
O         -2.35777        0.68598       -1.10387
C         -3.30693       -1.17633        0.12532
O          1.11784       -0.37230        0.47386
C          2.24446       -0.17753       -0.26389
O          2.35777        0.68598       -1.10386
C          3.30693       -1.17632        0.12534
H          0.00003        1.41003        2.11653
H          0.88807        2.30433        0.85039
H         -0.88802        2.30434        0.85041
H         -0.00001        0.72852       -0.88032
H         -3.53026       -1.09105        1.19373
H         -4.20832       -0.99251       -0.45990
H         -2.94703       -2.19509       -0.05217
H          3.53021       -1.09102        1.19376
H          2.94708       -2.19510       -0.05217
H          4.20834       -0.99246       -0.45985
