16
/scratch/dz1061/gcn/chemGraph/data/deepchem/freesol/split/QM_opt/gjf/479.log	Energy: -308802.8658351
C          1.36319        1.21468       -0.00485
C         -0.02195        1.21572       -0.00375
C         -0.71040       -0.00000       -0.00256
C         -0.02195       -1.21572       -0.00375
C          1.36319       -1.21468       -0.00485
C          2.08193        0.00000       -0.00534
N          3.46129        0.00000       -0.05572
N         -2.16612        0.00000        0.00307
O         -2.74405       -1.09086        0.00526
O         -2.74405        1.09086        0.00526
H          1.90489        2.15708       -0.00937
H         -0.58349        2.14194       -0.00121
H         -0.58349       -2.14194       -0.00121
H          1.90489       -2.15708       -0.00937
H          3.93583       -0.84606        0.22816
H          3.93583        0.84606        0.22816
