6
/scratch/dz1061/gcn/chemGraph/data/deepchem/freesol/split/QM_opt/gjf/486.log	Energy: -626115.5015037
C          0.00000       -0.66581        0.96090
C         -0.00000        0.66581        0.96090
Cl        -0.00000        1.67177       -0.45062
Cl        -0.00000       -1.67177       -0.45062
H          0.00000       -1.21528        1.89522
H         -0.00000        1.21528        1.89522
