19
/scratch/dz1061/gcn/chemGraph/data/deepchem/freesol/split/QM_opt/gjf/487.log	Energy: -195216.8800051
C          3.40294        0.26492        0.00000
C          2.13589       -0.59650       -0.00000
C          0.84789        0.23599       -0.00000
C         -0.41878       -0.62141       -0.00000
C         -1.71475        0.18318       -0.00000
O         -1.71808        1.39974        0.00000
C         -3.00953       -0.61520        0.00000
H          4.30753       -0.35380        0.00000
H          3.44085        0.91237       -0.88448
H          3.44085        0.91237        0.88449
H          2.14408       -1.25838        0.87813
H          2.14408       -1.25838       -0.87813
H          0.83174        0.89893        0.87417
H          0.83174        0.89893       -0.87417
H         -0.43691       -1.29330       -0.87234
H         -0.43691       -1.29330        0.87233
H         -3.86351        0.06524        0.00000
H         -3.06042       -1.26721       -0.88107
H         -3.06041       -1.26721        0.88108
