14
/scratch/dz1061/gcn/chemGraph/data/deepchem/freesol/split/QM_opt/gjf/488.log	Energy: -401090.7904269
C          0.71690       -0.97211        0.24443
C         -0.71691       -0.97212       -0.24435
O         -1.35847        0.15663        0.38050
N         -2.73491        0.28108        0.04582
O         -3.20270       -0.55675       -0.69835
O         -3.25459        1.23128        0.57158
O          1.35853        0.15644       -0.38071
N          2.73497        0.28089       -0.04605
O          3.25453        1.23137       -0.57145
O          3.20265       -0.55662        0.69854
H          0.76852       -0.88273        1.33264
H          1.20867       -1.90080       -0.06146
H         -1.20873       -1.90071        0.06176
H         -0.76852       -0.88300       -1.33259
