16
/scratch/dz1061/gcn/chemGraph/data/deepchem/freesol/split/QM_opt/gjf/491.log	Energy: -194307.2119576
C         -2.97746        0.33507        0.00029
C         -1.95491       -0.52914       -0.00022
C         -0.51530       -0.22008       -0.00013
C         -0.00865        1.09239       -0.00018
C          1.36273        1.32927       -0.00006
C          2.26560        0.26169        0.00011
C          1.78045       -1.04645        0.00013
C          0.40624       -1.28120        0.00001
H         -2.84007        1.41309        0.00087
H         -4.00447       -0.01691        0.00015
H         -2.18593       -1.59461       -0.00071
H         -0.69299        1.93589       -0.00037
H          1.73025        2.35223       -0.00012
H          3.33577        0.44998        0.00020
H          2.47115       -1.88555        0.00024
H          0.03414       -2.30341        0.00002
