9
/scratch/dz1061/gcn/chemGraph/data/deepchem/freesol/split/QM_opt/gjf/492.log	Energy: -284108.0686494
C          0.89531        0.77281       -0.08663
C         -0.42042        0.01548        0.00783
F         -1.46030        0.83236       -0.25948
F         -0.61799       -0.52834        1.21948
F         -0.44245       -0.99474       -0.89998
O          2.00330       -0.07229        0.10972
H          0.91014        1.28452       -1.06026
H          0.91695        1.52952        0.70134
H          1.98385       -0.74888       -0.58619
