12
/scratch/dz1061/gcn/chemGraph/data/deepchem/freesol/split/QM_opt/gjf/494.log	Energy: -121954.8969557
C          1.90115       -0.14302       -0.00000
C          0.52236        0.52386        0.00000
C         -0.61900       -0.48462        0.00000
O         -1.84716        0.23797       -0.00000
H          2.70040        0.60580        0.00000
H          2.04012       -0.77587       -0.88530
H          2.04012       -0.77587        0.88530
H          0.41179        1.17032        0.87959
H          0.41179        1.17032       -0.87959
H         -0.54133       -1.13501        0.88794
H         -0.54133       -1.13501       -0.88794
H         -2.57136       -0.40579       -0.00000
