18
/scratch/dz1061/gcn/chemGraph/data/deepchem/freesol/split/QM_opt/gjf/495.log	Energy: -195082.6954542
C         -1.77523        1.48001        0.00000
C         -0.47757        0.70594       -0.00000
C          0.74629        1.38422       -0.00000
C          1.96083        0.69663        0.00000
C          1.96083       -0.69663        0.00000
C          0.74629       -1.38422        0.00000
C         -0.47757       -0.70594        0.00000
C         -1.77523       -1.48001       -0.00000
H         -2.38878        1.24670        0.88016
H         -1.59080        2.55868       -0.00000
H         -2.38878        1.24669       -0.88015
H          0.74489        2.47220       -0.00000
H          2.89762        1.24772        0.00000
H          2.89762       -1.24772        0.00000
H          0.74489       -2.47220        0.00000
H         -2.38878       -1.24669        0.88015
H         -1.59080       -2.55868        0.00000
H         -2.38878       -1.24670       -0.88016
