16
/scratch/dz1061/gcn/chemGraph/data/deepchem/freesol/split/QM_opt/gjf/497.log	Energy: -321970.8885352
C          2.55799        0.70051        0.00000
C          2.55799       -0.70051        0.00000
C          1.35822       -1.42369        0.00000
C          0.17526       -0.69890       -0.00000
C          0.17526        0.69890       -0.00000
C          1.35822        1.42369       -0.00000
C         -1.24294        1.17396       -0.00000
O         -1.67402        2.30746        0.00000
N         -2.01120       -0.00000       -0.00000
C         -1.24294       -1.17396       -0.00000
O         -1.67402       -2.30746        0.00000
H          3.50508        1.23263        0.00000
H          3.50508       -1.23263        0.00000
H          1.34642       -2.50927        0.00000
H          1.34642        2.50927       -0.00000
H         -3.02264       -0.00000        0.00000
