13
/scratch/dz1061/gcn/chemGraph/data/deepchem/freesol/split/QM_opt/gjf/502.log	Energy: -122569.6291164
C          0.00000       -1.22787       -0.13044
C         -1.23710       -0.31768        0.09957
C         -0.66765        1.07609       -0.04511
C          0.66765        1.07609       -0.04511
C          1.23710       -0.31768        0.09957
H          0.00000       -1.58276       -1.16721
H          0.00000       -2.11238        0.51414
H         -1.66750       -0.45667        1.10339
H         -2.04686       -0.52626       -0.61142
H         -1.29271        1.96363       -0.10085
H          1.29270        1.96363       -0.10085
H          1.66750       -0.45667        1.10339
H          2.04686       -0.52626       -0.61142
