40
/scratch/dz1061/gcn/chemGraph/data/deepchem/freesol/split/QM_opt/gjf/508.log	Energy: -969341.6633291
C          5.10761        1.70214       -0.52676
C          3.75698        1.55179        0.14667
O          3.11436        0.38069       -0.41791
P          1.73581       -0.17656        0.18602
S          1.65714       -0.54297        2.08471
O          1.49190       -1.36644       -0.85226
C          0.94224       -2.65242       -0.45472
C          0.86342       -3.50882       -1.70367
O          0.76169        1.06002       -0.35078
C         -0.59763        1.09741       -0.24485
C         -1.20907        2.34310       -0.40867
C         -2.59598        2.36020       -0.31957
N         -3.29767        1.23270       -0.07875
C         -2.61066        0.09772        0.06381
N         -1.26846       -0.02074       -0.02020
C         -3.40698       -1.16470        0.33491
C         -2.97927       -1.82359        1.65810
C         -3.30371       -2.14544       -0.84782
C         -3.39356        3.62630       -0.47670
H          5.62211        2.58408       -0.12928
H          4.99224        1.82483       -1.60811
H          5.73179        0.82274       -0.34108
H          3.11655        2.42126       -0.03733
H          3.85869        1.41166        1.22803
H         -0.04220       -2.48209       -0.01383
H          1.59767       -3.09418        0.30136
H          1.85432       -3.64373       -2.14832
H          0.20739       -3.04949       -2.44968
H          0.46085       -4.49508       -1.44677
H         -0.62021        3.23407       -0.59083
H         -4.44915       -0.84037        0.42311
H         -3.11736       -1.14074        2.50365
H         -1.92394       -2.11314        1.63319
H         -3.58075       -2.72059        1.84542
H         -3.91742       -3.03348       -0.65803
H         -3.65372       -1.68450       -1.77836
H         -2.26935       -2.47156       -0.99957
H         -3.98225        3.81347        0.42818
H         -4.10485        3.52139       -1.30351
H         -2.75261        4.49141       -0.66802
