29
/scratch/dz1061/gcn/chemGraph/data/deepchem/freesol/split/QM_opt/gjf/509.log	Energy: -316435.3117194
C         -5.96286       -0.24425        0.00000
C         -4.64440        0.53600        0.00000
C         -3.40576       -0.36913        0.00000
C         -2.08136        0.40480       -0.00000
C         -0.84308       -0.50087       -0.00000
C          0.47664        0.28019       -0.00000
C          1.70366       -0.63408       -0.00001
C          3.01492        0.12745       -0.00001
O          3.13676        1.33298       -0.00000
O          4.06722       -0.72626        0.00000
C          5.36213       -0.10604        0.00001
H         -6.04247       -0.88809       -0.88470
H         -6.82712        0.42978        0.00001
H         -6.04246       -0.88810        0.88471
H         -4.60982        1.19654        0.87806
H         -4.60982        1.19654       -0.87805
H         -3.44087       -1.03070        0.87862
H         -3.44087       -1.03069       -0.87862
H         -2.04644        1.06601       -0.87840
H         -2.04643        1.06601        0.87840
H         -0.87758       -1.16255       -0.87853
H         -0.87758       -1.16255        0.87853
H          0.52071        0.94060        0.87497
H          0.52071        0.94060       -0.87497
H          1.70210       -1.30033       -0.87332
H          1.70210       -1.30033        0.87331
H          5.49167        0.51751       -0.88895
H          5.49166        0.51751        0.88897
H          6.08139       -0.92589        0.00001
