13
/scratch/dz1061/gcn/chemGraph/data/deepchem/freesol/split/QM_opt/gjf/51.log	Energy: -109484.3390933
C          0.24237        1.36763        0.06115
N         -0.00001       -0.00002       -0.37260
C          1.06323       -0.89371        0.06116
C         -1.30560       -0.47391        0.06116
H          1.20476        1.71454       -0.33115
H         -0.54227        2.02412       -0.33102
H          0.26250        1.48070        1.16461
H          2.02405       -0.54251       -0.33119
H          1.15123       -0.96749        1.16461
H          0.88240       -1.90067       -0.33097
H         -1.48182       -1.48170       -0.33096
H         -1.41357       -0.51297        1.16461
H         -2.08723        0.18606       -0.33118
