5
/scratch/dz1061/gcn/chemGraph/data/deepchem/freesol/split/QM_opt/gjf/514.log	Energy: -3252201.5273634
C         -0.00000        0.00000        0.94611
Br         0.00000       -1.63023       -0.12533
Br         0.00000        1.63023       -0.12533
H          0.90237        0.00000        1.54824
H         -0.90237       -0.00000        1.54824
