6
/scratch/dz1061/gcn/chemGraph/data/deepchem/freesol/split/QM_opt/gjf/519.log	Energy:  -70189.3601095
N         -0.72701       -0.00000        0.15999
N          0.72701       -0.00000       -0.15999
H         -1.08189       -0.79671       -0.37629
H         -1.08189        0.79671       -0.37629
H          1.08189        0.79671        0.37629
H          1.08189       -0.79671        0.37629
