10
/scratch/dz1061/gcn/chemGraph/data/deepchem/freesol/split/QM_opt/gjf/523.log	Energy:  -84820.4860341
C          1.24842       -0.23809       -0.02741
C         -0.05042        0.56088        0.05391
N         -1.20808       -0.32567       -0.12057
H          1.30388       -0.77990       -0.97702
H          1.30870       -0.97452        0.78456
H          2.12084        0.41979        0.05627
H         -0.07533        1.29809       -0.75852
H         -0.06473        1.13606        0.99845
H         -2.06865        0.21904       -0.08299
H         -1.25610       -0.97555        0.66423
