31
/scratch/dz1061/gcn/chemGraph/data/deepchem/freesol/split/QM_opt/gjf/539.log	Energy: -1202288.1785785
C          2.15643        2.48383        0.38741
O          2.59673        1.18372        0.83930
P          3.00190        0.01958       -0.21938
S          4.22120        0.51418       -1.64473
O          3.46451       -1.11649        0.84028
C          4.67722       -0.92436        1.60027
S          1.20954       -0.81863       -0.93885
C          0.25516       -1.05099        0.65043
N         -1.16066       -0.86249        0.41537
C         -1.71217        0.43051        0.47142
O         -1.02623        1.40618        0.74751
C         -3.14330        0.43756        0.18116
C         -3.88733        1.62595        0.19357
C         -5.24420        1.58342       -0.09383
C         -5.87058        0.35968       -0.39610
C         -5.14298       -0.82034       -0.41028
C         -3.76767       -0.78769       -0.11978
N         -3.07028       -1.99620       -0.14156
N         -1.83266       -2.02748        0.10979
H          2.82997        2.86593       -0.38465
H          2.18933        3.12856        1.26707
H          1.13108        2.41510        0.01821
H          4.81971       -1.84371        2.16988
H          5.52550       -0.76603        0.92812
H          4.56877       -0.07343        2.27838
H          0.40427       -2.06717        1.00916
H          0.59569       -0.31110        1.37296
H         -3.38097        2.55621        0.42824
H         -5.82805        2.49917       -0.08674
H         -6.93322        0.34124       -0.62024
H         -5.60075       -1.77690       -0.63992
