16
/scratch/dz1061/gcn/chemGraph/data/deepchem/freesol/split/QM_opt/gjf/543.log	Energy: -170537.9958446
C         -2.14773       -0.03513        0.16261
C         -0.73719        0.05969       -0.39861
C          0.12564        1.20246        0.15091
C          1.54432        0.66361       -0.07961
C          1.36093       -0.84519        0.16674
O         -0.02271       -1.13827       -0.05805
H         -2.12006       -0.10643        1.25559
H         -2.73562        0.84668       -0.11783
H         -2.65605       -0.92377       -0.22537
H         -0.78971        0.14377       -1.49864
H         -0.06534        2.15755       -0.34893
H         -0.07019        1.33263        1.22323
H          2.29479        1.11036        0.57999
H          1.85640        0.84976       -1.11412
H          1.61275       -1.11943        1.20096
H          1.97888       -1.45765       -0.50272
