16
/scratch/dz1061/gcn/chemGraph/data/deepchem/freesol/split/QM_opt/gjf/546.log	Energy: -170546.5386888
C         -1.62636       -0.92701        0.46678
C         -0.62696        0.23290        0.40492
C         -1.11177        1.34275       -0.55402
C          0.75336       -0.24565       -0.06190
O          0.87599       -1.17748       -0.83502
C          1.96028        0.50853        0.47122
H         -2.61697       -0.56689        0.76602
H         -1.30840       -1.68908        1.18668
H         -1.70881       -1.41029       -0.51100
H         -0.51340        0.67698        1.40417
H         -0.41309        2.18621       -0.59656
H         -2.08294        1.72913       -0.22572
H         -1.22743        0.94574       -1.56871
H          2.09833        0.26788        1.53393
H          1.81613        1.59356        0.40847
H          2.85743        0.21749       -0.07904
