14
/scratch/dz1061/gcn/chemGraph/data/deepchem/freesol/split/QM_opt/gjf/555.log	Energy: -180474.4812557
C         -2.41417        0.00000        0.00736
C         -0.90554        0.00000       -0.01081
C         -0.17135       -1.19139       -0.00813
C          1.22216       -1.13822        0.00256
N          1.92734       -0.00000        0.00778
C          1.22216        1.13822        0.00256
C         -0.17135        1.19139       -0.00813
H         -2.82060        0.88757       -0.48840
H         -2.79176       -0.00000        1.03838
H         -2.82060       -0.88757       -0.48840
H         -0.67801       -2.15338       -0.01689
H          1.80302       -2.05964        0.00266
H          1.80302        2.05964        0.00266
H         -0.67801        2.15338       -0.01689
