10
/scratch/dz1061/gcn/chemGraph/data/deepchem/freesol/split/QM_opt/gjf/556.log	Energy: -131881.0885797
C         -0.98349       -0.71259       -0.00001
C         -0.98349        0.71260        0.00000
C          0.33150        1.12538       -0.00000
N          1.12233       -0.00000       -0.00000
C          0.33150       -1.12538        0.00001
H         -1.84931       -1.36103       -0.00001
H         -1.84931        1.36103        0.00001
H          0.76797        2.11379       -0.00000
H          2.13032       -0.00000       -0.00000
H          0.76797       -2.11379        0.00001
