19
/scratch/dz1061/gcn/chemGraph/data/deepchem/freesol/split/QM_opt/gjf/558.log	Energy: -242281.0152395
C         -2.58506       -0.33059       -0.00000
C         -1.17265        0.20656       -0.00000
C         -0.95255        1.58986       -0.00000
C          0.34242        2.10349        0.00001
C          1.43248        1.23769       -0.00000
C          1.21828       -0.14403        0.00000
C         -0.07994       -0.68243        0.00001
C         -0.28636       -2.17890        0.00001
O          2.27176       -1.02674       -0.00005
H         -2.78168       -0.95699       -0.87981
H         -3.31564        0.48383       -0.00032
H         -2.78186       -0.95645        0.88016
H         -1.80433        2.26501       -0.00002
H          0.50624        3.17777        0.00000
H          2.44930        1.62759       -0.00003
H         -0.85550       -2.50426        0.88063
H         -0.85486       -2.50436       -0.88098
H          0.66694       -2.70881        0.00037
H          3.09760       -0.51934        0.00031
