35
/scratch/dz1061/gcn/chemGraph/data/deepchem/freesol/split/QM_opt/gjf/559.log	Energy: -782011.7599542
C         -4.28211       -0.75489       -1.18321
C         -2.96452        0.00830       -1.28895
N         -2.22216        0.09005       -0.00951
C         -2.87543        0.83988        1.08089
C         -3.47922       -0.09308        2.13640
C         -0.82169        0.14028       -0.08161
C         -0.06343        1.33696       -0.04512
C          1.32893        1.32752       -0.00354
C          2.04321        0.14629       -0.01258
C          1.36219       -1.10203       -0.01244
C         -0.06050       -1.05883       -0.07229
N         -0.76552       -2.34032       -0.03165
O         -1.69849       -2.52420       -0.80139
O         -0.37436       -3.18617        0.78874
N          2.04790       -2.27611        0.00078
C          3.54602        0.18935       -0.04247
F          4.03997       -0.34907       -1.18124
F          4.02367        1.43950        0.05878
F          4.09086       -0.53368        0.97903
N         -0.67337        2.66687       -0.14013
O         -1.74294        2.78925       -0.73749
O         -0.04942        3.60650        0.35825
H         -4.11798       -1.77524       -0.82622
H         -4.75072       -0.80341       -2.17305
H         -4.99091       -0.25713       -0.51253
H         -3.14489        1.02770       -1.65614
H         -2.31474       -0.49142       -2.00914
H         -2.14817        1.49273        1.57373
H         -3.64148        1.49865        0.65638
H         -2.70356       -0.72211        2.58694
H         -4.23713       -0.75319        1.70555
H         -3.94823        0.49537        2.93458
H          1.84875        2.27631        0.01562
H          3.02957       -2.24766        0.23356
H          1.54211       -3.09647        0.30977
