21
/scratch/dz1061/gcn/chemGraph/data/deepchem/freesol/split/QM_opt/gjf/568.log	Energy: -195969.1580591
C          2.18164       -0.92430        0.63981
C          1.20547       -0.14089       -0.23337
C          1.75644        1.23209       -0.63153
O          0.00000        0.00000        0.52361
C         -1.20547        0.14089       -0.23337
C         -2.18164        0.92430        0.63981
C         -1.75644       -1.23209       -0.63153
H          2.36775       -0.38336        1.57452
H          1.76779       -1.90583        0.89136
H          3.13907       -1.06722        0.12633
H          1.00060       -0.72317       -1.14606
H          1.03237        1.79385       -1.23209
H          2.67418        1.13001       -1.22288
H          1.98382        1.81976        0.26498
H         -1.00060        0.72317       -1.14606
H         -1.76779        1.90583        0.89136
H         -2.36775        0.38336        1.57452
H         -3.13907        1.06722        0.12633
H         -1.98382       -1.81976        0.26498
H         -1.03237       -1.79385       -1.23209
H         -2.67418       -1.13001       -1.22288
