21
/scratch/dz1061/gcn/chemGraph/data/deepchem/freesol/split/QM_opt/gjf/569.log	Energy: -313391.3082288
C         -3.52290        0.90167        0.00002
C         -2.57936       -0.29253       -0.00003
O         -3.02666       -1.43143        0.00002
C         -1.10748       -0.04615       -0.00002
C         -0.24499       -1.15126       -0.00001
C          1.13723       -0.99531       -0.00001
C          1.68585        0.29656       -0.00000
C          0.83590        1.41464       -0.00000
C         -0.53991        1.24136       -0.00001
O          3.01733        0.57053        0.00001
C          3.93463       -0.51521        0.00001
H         -4.55031        0.53381        0.00005
H         -3.36396        1.53186        0.88339
H         -3.36402        1.53188       -0.88335
H         -0.68649       -2.14273       -0.00002
H          1.77480       -1.87194       -0.00000
H          1.28231        2.40395       -0.00000
H         -1.17660        2.12081       -0.00001
H          4.92825       -0.06426        0.00002
H          3.81846       -1.13941        0.89512
H          3.81847       -1.13941       -0.89510
