12
/scratch/dz1061/gcn/chemGraph/data/deepchem/freesol/split/QM_opt/gjf/570.log	Energy: -1010938.1803687
C          1.30380        0.53138       -0.00000
C          0.18787        1.36699       -0.00001
C         -1.11211        0.86343       -0.00000
C         -1.27781       -0.52080       -0.00000
C         -0.19171       -1.39484       -0.00000
C          1.08992       -0.84622        0.00000
Cl         2.47477       -1.92135        0.00000
Cl        -2.90135       -1.18249        0.00000
Cl         0.42660        3.10386        0.00000
H          2.30657        0.94009        0.00000
H         -1.96745        1.52749       -0.00000
H         -0.33914       -2.46762       -0.00000
