21
/scratch/dz1061/gcn/chemGraph/data/deepchem/freesol/split/QM_opt/gjf/575.log	Energy: -172670.5581944
C         -3.62304       -0.59825       -0.12820
C         -2.47229        0.41309       -0.11434
C         -1.10391       -0.23221        0.13793
C          0.05553        0.78236        0.15123
C          1.38958        0.15212        0.44638
C          2.44283        0.14830       -0.37510
C          3.77062       -0.49090       -0.08253
H         -3.47924       -1.35159       -0.91253
H         -4.58581       -0.10721       -0.31078
H         -3.69605       -1.12886        0.82922
H         -2.66156        1.17339        0.65700
H         -2.44725        0.95239       -1.07205
H         -1.12685       -0.76970        1.09755
H         -0.90611       -0.99177       -0.63129
H         -0.16395        1.55095        0.90922
H          0.09826        1.30387       -0.81465
H          1.47649       -0.34934        1.41360
H          2.35392        0.64758       -1.34238
H          4.02017       -1.25499       -0.83157
H          4.58402        0.24733       -0.10660
H          3.77808       -0.96914        0.90302
