13
/scratch/dz1061/gcn/chemGraph/data/deepchem/freesol/split/QM_opt/gjf/579.log	Energy: -395603.3786771
C          2.29810        0.00474       -0.00001
C          1.59144        1.20773        0.00001
C          0.19609        1.21103       -0.00002
C         -0.50691        0.00003        0.00003
C          0.20152       -1.20936        0.00005
C          1.59534       -1.20185       -0.00002
S         -2.29381       -0.08360       -0.00003
H          3.38424        0.00688       -0.00000
H          2.12488        2.15470       -0.00001
H         -0.34028        2.15626       -0.00006
H         -0.33611       -2.15383        0.00007
H          2.13305       -2.14630       -0.00000
H         -2.51819        1.24608        0.00038
