26
/scratch/dz1061/gcn/chemGraph/data/deepchem/freesol/split/QM_opt/gjf/58.log	Energy: -1811505.4019352
C         -6.54542       -0.52828        0.00000
C         -5.31444        0.38382       -0.00000
C         -3.98900       -0.38867       -0.00000
C         -2.75118        0.51748        0.00000
C         -1.42696       -0.25693       -0.00000
C         -0.18975        0.65145        0.00000
C          1.12976       -0.13820        0.00000
C          2.33748        0.78605       -0.00000
Br         4.03936       -0.23535        0.00000
H         -7.47460        0.05290       -0.00000
H         -6.55826       -1.17690       -0.88464
H         -6.55826       -1.17690        0.88464
H         -5.34812        1.04450       -0.87806
H         -5.34812        1.04450        0.87806
H         -3.95546       -1.05030        0.87849
H         -3.95546       -1.05030       -0.87849
H         -2.78521        1.17874        0.87862
H         -2.78521        1.17874       -0.87862
H         -1.39095       -0.91744       -0.87859
H         -1.39095       -0.91744        0.87859
H         -0.22281        1.31099       -0.87941
H         -0.22281        1.31099        0.87941
H          1.17478       -0.79185       -0.87973
H          1.17478       -0.79185        0.87973
H          2.38302        1.41429        0.89062
H          2.38302        1.41429       -0.89062
