11
/scratch/dz1061/gcn/chemGraph/data/deepchem/freesol/split/QM_opt/gjf/584.log	Energy: -108708.3051429
C          0.00000        1.08165       -0.07374
C         -1.05370       -0.04094        0.09175
N         -0.00000       -1.03318       -0.23597
C          1.05370       -0.04094        0.09175
H          0.00000        1.88624        0.66547
H          0.00000        1.51047       -1.07920
H         -1.91079       -0.04582       -0.59246
H         -1.43057       -0.09947        1.12547
H         -0.00000       -1.87252        0.34095
H          1.91079       -0.04582       -0.59246
H          1.43057       -0.09947        1.12547
