33
/scratch/dz1061/gcn/chemGraph/data/deepchem/freesol/split/QM_opt/gjf/586.log	Energy: -563484.9036107
C          4.66822       -1.04882        0.19046
C          3.93757       -2.22663       -0.00762
C          2.55343       -2.17735       -0.14985
C          1.88400       -0.94842       -0.09558
C          2.61934        0.23288        0.10335
C          4.01073        0.17657        0.24565
C          1.93098        1.54808        0.16386
O          2.56159        2.58634        0.33628
C          0.44281        1.56272        0.00690
C         -0.18596        2.80031        0.06105
C         -1.57577        2.87037       -0.07956
C         -2.33096        1.72691       -0.26956
C         -1.72326        0.44621       -0.33519
C         -0.29643        0.36502       -0.19061
C          0.39980       -0.92717       -0.25060
O         -0.19527       -2.00517       -0.42434
N         -2.46983       -0.68012       -0.52705
C         -3.89896       -0.72726       -0.79700
C         -4.73938       -0.75288        0.48719
O         -4.42234       -1.87038        1.29745
H          5.74826       -1.09086        0.30109
H          4.45113       -3.18322       -0.05071
H          1.96869       -3.07763       -0.30407
H          4.55033        1.10550        0.39783
H          0.41903        3.68622        0.21425
H         -2.07571        3.83440       -0.03557
H         -3.40718        1.81145       -0.36388
H         -1.91824       -1.53063       -0.61679
H         -4.20245        0.10798       -1.44180
H         -4.08785       -1.65155       -1.35219
H         -4.61252        0.19150        1.04089
H         -5.79936       -0.84739        0.22829
H         -3.47418       -1.80452        1.49935
