14
/scratch/dz1061/gcn/chemGraph/data/deepchem/freesol/split/QM_opt/gjf/590.log	Energy: -387838.2501990
C         -0.81760       -1.24405        0.76723
C         -0.37026        0.00001        0.00002
C         -0.81771       -0.04240       -1.46095
C         -0.81758        1.28646        0.69380
Cl         1.49399       -0.00001       -0.00005
H         -0.45248       -2.15656        0.28697
H         -1.91437       -1.28126        0.79003
H         -0.45268       -1.22451        1.79829
H         -1.91448       -0.04364       -1.50444
H         -0.45273        0.82981       -2.01112
H         -0.45277       -0.94507       -1.95959
H         -0.45243        2.16957        0.16143
H         -1.91434        1.32494        0.71437
H         -0.45267        1.32673        1.72426
