17
/scratch/dz1061/gcn/chemGraph/data/deepchem/freesol/split/QM_opt/gjf/591.log	Energy: -205148.4947110
C          2.54802       -0.98518        0.00018
C          1.22347       -0.26220       -0.00023
C          1.15946        1.13873       -0.00016
C         -0.08660        1.75509        0.00005
N         -1.25328        1.09345        0.00014
C         -1.20433       -0.24671        0.00005
C          0.01048       -0.95001       -0.00019
C         -2.52466       -0.97991        0.00003
H          3.14161       -0.72158        0.88410
H          2.41306       -2.07106       -0.00360
H          3.14562       -0.71592       -0.87928
H          2.06666        1.73784       -0.00031
H         -0.15957        2.84195        0.00007
H          0.00193       -2.03791       -0.00037
H         -2.62345       -1.62421        0.88257
H         -2.62366       -1.62381       -0.88278
H         -3.34430       -0.25826        0.00027
