20
/scratch/dz1061/gcn/chemGraph/data/deepchem/freesol/split/QM_opt/gjf/601.log	Energy: -242425.8234442
C          1.90991        1.12988        0.00005
C          0.97572       -0.09008        0.00000
C          1.21653       -0.94622        1.26340
C          1.21662       -0.94619       -1.26340
C         -0.47667        0.40229       -0.00005
O         -0.83193        1.56145       -0.00001
O         -1.35521       -0.63070       -0.00002
C         -2.74185       -0.25951        0.00000
H          2.95442        0.79787        0.00008
H          1.74469        1.75528       -0.88238
H          1.74463        1.75527        0.88248
H          0.55940       -1.82010        1.28354
H          1.04240       -0.36380        2.17573
H          2.25582       -1.29466        1.28173
H          1.04255       -0.36375       -2.17573
H          2.25592       -1.29463       -1.28165
H          0.55950       -1.82007       -1.28361
H         -2.98328        0.32980       -0.88886
H         -3.29727       -1.19810        0.00003
H         -2.98324        0.32983        0.88886
