5
/scratch/dz1061/gcn/chemGraph/data/deepchem/freesol/split/QM_opt/gjf/609.log	Energy: -1638814.1941342
C         -0.00000       -0.00000       -1.54018
Br         0.00000        0.00000        0.42445
H          0.00000        1.03670       -1.87160
H          0.89781       -0.51835       -1.87160
H         -0.89781       -0.51835       -1.87160
