5
/scratch/dz1061/gcn/chemGraph/data/deepchem/freesol/split/QM_opt/gjf/61.log	Energy: -313822.8402971
C          1.13921       -0.00001       -0.00000
Cl        -0.66421        0.00000        0.00000
H          1.48548        0.48447        0.91314
H          1.48547        0.54861       -0.87611
H          1.48543       -1.03306       -0.03703
