6
/scratch/dz1061/gcn/chemGraph/data/deepchem/freesol/split/QM_opt/gjf/610.log	Energy:  -72611.8851541
C         -0.66268       -0.01950        0.00000
O          0.74935        0.12253        0.00000
H         -1.07940        0.99134       -0.00000
H         -1.03620       -0.54380       -0.89336
H         -1.03620       -0.54380        0.89336
H          1.13306       -0.76695        0.00000
