9
/scratch/dz1061/gcn/chemGraph/data/deepchem/freesol/split/QM_opt/gjf/614.log	Energy: -131282.6357943
C         -1.36606       -0.33800        0.00009
C          0.07773        0.14761       -0.00255
O          0.36725        1.33406        0.00332
N          1.02917       -0.83713       -0.01973
H         -1.47003       -1.42281       -0.10120
H         -1.90003        0.14957       -0.82039
H         -1.84288       -0.02173        0.93347
H          0.80212       -1.81526        0.06817
H          1.99862       -0.56000        0.04621
