24
/scratch/dz1061/gcn/chemGraph/data/deepchem/freesol/split/QM_opt/gjf/617.log	Energy: -291494.7689415
C          1.03837       -2.94207        0.00000
C          1.00462       -1.43221        0.00000
C          2.17610       -0.70693        0.00000
C          2.17612        0.70684       -0.00000
C          1.00468        1.43217        0.00000
C         -0.23937        0.71891        0.00000
C         -0.23940       -0.71890        0.00000
C         -1.48933       -1.39539        0.00000
C         -2.68220       -0.70573       -0.00000
C         -2.68217        0.70583        0.00000
C         -1.48928        1.39545        0.00000
C          1.03849        2.94203        0.00000
H          0.53825       -3.36292       -0.88173
H          2.07070       -3.30455        0.00000
H          0.53825       -3.36292        0.88173
H          3.12844       -1.23240        0.00000
H          3.12849        1.23228       -0.00000
H         -1.50195       -2.48070       -0.00000
H         -3.62388       -1.24833       -0.00000
H         -3.62383        1.24847        0.00000
H         -1.50186        2.48076        0.00000
H          0.53838        3.36290       -0.88173
H          2.07083        3.30447       -0.00000
H          0.53838        3.36290        0.88173
