12
/scratch/dz1061/gcn/chemGraph/data/deepchem/freesol/split/QM_opt/gjf/619.log	Energy:  -98657.7116636
C          1.73012       -0.24593       -0.29399
C          0.53992        0.52055        0.30773
C         -0.72312       -0.29708        0.33837
C         -1.86261        0.01816       -0.27831
H          2.64122        0.36273       -0.27319
H          1.52994       -0.52562       -1.33421
H          1.93117       -1.16758        0.26550
H          0.79930        0.82588        1.33267
H          0.36628        1.44439       -0.25857
H         -0.67061       -1.22613        0.91012
H         -1.96202        0.93159       -0.86201
H         -2.74111       -0.61942       -0.22303
