14
/scratch/dz1061/gcn/chemGraph/data/deepchem/freesol/split/QM_opt/gjf/62.log	Energy: -1712827.1872343
C          1.54315        1.46897        0.14478
C          1.43647        0.01154       -0.31964
C          2.75362       -0.74947       -0.08302
C          0.30643       -0.74107        0.38110
Br        -1.48877       -0.00486       -0.04606
H          0.60323        2.00409       -0.01891
H          2.33722        1.99191       -0.39953
H          1.78147        1.52022        1.21533
H          1.22207        0.00168       -1.39668
H          2.69854       -1.78021       -0.45215
H          3.00439       -0.78529        0.98476
H          3.58099       -0.25131       -0.60063
H          0.38551       -0.68519        1.46870
H          0.25549       -1.78558        0.07187
