16
/scratch/dz1061/gcn/chemGraph/data/deepchem/freesol/split/QM_opt/gjf/620.log	Energy: -217609.9542884
C          1.98070       -1.22376        0.00000
C          0.59026       -0.64097       -0.00000
C         -0.55494       -1.44082       -0.00000
C         -1.84012       -0.89166        0.00000
C         -1.99273        0.49345        0.00000
C         -0.86647        1.31792       -0.00000
C          0.41126        0.75414       -0.00000
O          1.54935        1.52103        0.00000
H          1.94521       -2.31749       -0.00000
H          2.55063       -0.89764        0.87840
H          2.55063       -0.89764       -0.87840
H         -0.43178       -2.52168       -0.00000
H         -2.71067       -1.54109        0.00000
H         -2.98368        0.93939        0.00000
H         -0.97742        2.40145       -0.00000
H          1.29458        2.45664        0.00000
