13
/scratch/dz1061/gcn/chemGraph/data/deepchem/freesol/split/QM_opt/gjf/621.log	Energy: -145870.4387670
C          0.45266        1.47139       -0.04141
C          0.42881        0.01231        0.41575
C          1.51682       -0.84946       -0.25538
C         -0.92910       -0.63094        0.19871
O         -1.89885       -0.07647       -0.26905
H         -0.33092        2.05263        0.45337
H          0.28007        1.54195       -1.12070
H          1.42167        1.93043        0.18220
H          0.60022       -0.03656        1.50488
H          1.46559       -1.89438        0.07304
H          2.51285       -0.46856       -0.00712
H          1.41138       -0.83169       -1.34647
H         -0.98516       -1.70187        0.50717
