26
/scratch/dz1061/gcn/chemGraph/data/deepchem/freesol/split/QM_opt/gjf/622.log	Energy: -466955.4724214
C          3.96470        0.32614       -0.00080
C          3.75555       -1.05831        0.00174
C          2.46121       -1.57117        0.00273
C          1.36097       -0.70505        0.00116
C          1.57256        0.68505       -0.00123
C          2.87675        1.19398       -0.00220
C          0.42215        1.62766       -0.00182
O          0.59878        2.84208       -0.00250
C         -0.95408        1.04322       -0.00102
C         -2.02399        1.92861        0.00304
C         -3.33299        1.42838        0.00605
C         -3.56868        0.06710        0.00285
C         -2.49871       -0.86367       -0.00372
C         -1.15876       -0.36393       -0.00315
C         -0.01533       -1.28449        0.00136
O         -0.14673       -2.51941        0.00634
N         -2.76640       -2.19382       -0.01770
H          4.97602        0.72342       -0.00160
H          4.60526       -1.73566        0.00288
H          2.27589       -2.63984        0.00455
H          3.00827        2.27101       -0.00391
H         -1.82007        2.99297        0.00454
H         -4.17480        2.11574        0.01060
H         -4.58750       -0.31370        0.00344
H         -1.98447       -2.83898        0.01112
H         -3.71827       -2.52076        0.03146
