34
/scratch/dz1061/gcn/chemGraph/data/deepchem/freesol/split/QM_opt/gjf/626.log	Energy: -388900.3677978
C          3.09496        1.41054       -0.16906
C          3.30719       -0.08430       -0.14011
C          2.33631       -0.99351       -0.31868
C          0.87241       -0.74249       -0.57908
C          0.02711       -0.86602        0.70378
C         -1.50309       -0.75955        0.49294
C         -2.23999       -0.67071        1.84032
C         -2.00886       -1.96316       -0.27363
C         -2.64196       -1.96395       -1.44535
O         -1.85624        0.39808       -0.33208
C         -1.52010        1.65638        0.02203
O         -0.89078        1.96586        1.01189
C         -2.04342        2.63938       -1.00411
C          4.73345       -0.51271        0.11185
H          3.64160        1.86871       -1.00587
H          3.49146        1.86987        0.74671
H          2.04399        1.69742       -0.24837
H          2.61669       -2.04631       -0.24946
H          0.50779       -1.46378       -1.32211
H          0.72045        0.24863       -1.01741
H          0.21646       -1.84176        1.17200
H          0.34288       -0.10386        1.41969
H         -2.06596       -1.58412        2.41967
H         -1.88343        0.18335        2.41972
H         -3.31758       -0.57330        1.67396
H         -1.81652       -2.90734        0.23648
H         -2.85273       -1.04527       -1.98187
H         -2.97029       -2.89361       -1.90179
H         -1.63911        2.40471       -1.99421
H         -3.13396        2.56746       -1.07169
H         -1.75614        3.65104       -0.71553
H          5.40969       -0.10739       -0.65447
H          5.09747       -0.13314        1.07713
H          4.83927       -1.60232        0.11356
