17
/scratch/dz1061/gcn/chemGraph/data/deepchem/freesol/split/QM_opt/gjf/627.log	Energy: -205147.9827448
C         -2.90204       -0.05689       -0.00032
C         -1.39460       -0.00043       -0.00007
C         -0.69417        1.21324        0.00005
C          0.69497        1.20706        0.00032
C          1.37867       -0.01897        0.00036
N          0.72168       -1.18757        0.00037
C         -0.61732       -1.16165        0.00014
C          2.88752       -0.07646       -0.00041
H         -3.32338        0.44054        0.88216
H         -3.25926       -1.09169       -0.00064
H         -3.32306        0.44104       -0.88265
H         -1.23702        2.15656        0.00004
H          1.25169        2.14081        0.00056
H         -1.10677       -2.13616        0.00025
H          3.30577        0.41245       -0.88927
H          3.30790        0.43262        0.87592
H          3.21414       -1.11852        0.01057
