19
/scratch/dz1061/gcn/chemGraph/data/deepchem/freesol/split/QM_opt/gjf/628.log	Energy: -429085.8591193
C          3.76389        0.21679       -0.14909
C          3.28837       -1.09736       -0.12736
C          1.92323       -1.35100       -0.01719
C          1.03188       -0.28046        0.07822
C          1.49065        1.03849        0.07686
C          2.86231        1.27552       -0.04655
O         -0.30927       -0.62127        0.19240
C         -1.25699        0.29528       -0.22188
C         -2.57785       -0.45461       -0.38229
F         -3.01996       -0.88193        0.82603
F         -3.49791        0.40429       -0.90601
F         -1.43748        1.29683        0.71420
H          4.82852        0.41184       -0.23844
H          3.98170       -1.93051       -0.20262
H          1.53205       -2.36340       -0.00694
H          0.79821        1.86261        0.20083
H          3.22242        2.30067       -0.04821
H         -0.97185        0.77654       -1.16610
H         -2.47170       -1.31618       -1.04998
