29
/scratch/dz1061/gcn/chemGraph/data/deepchem/freesol/split/QM_opt/gjf/629.log	Energy: -548275.2371489
C         -3.02896       -0.60500        2.01643
C         -3.35792        0.13626        0.71710
C         -2.53207       -0.32447       -0.50711
C         -3.03310        0.34767       -1.80012
C         -1.03926       -0.08843       -0.30869
C         -0.52258        1.19381       -0.19729
C          0.85023        1.41318       -0.02025
C          1.74770        0.36702        0.05008
C          1.24793       -0.93103       -0.05869
C         -0.14018       -1.18642       -0.23665
O         -0.64407       -2.41636       -0.34027
N          2.20678       -2.02125        0.01869
O          3.39130       -1.76063        0.17123
O          1.77853       -3.19448       -0.07486
N          1.34948        2.78780        0.09249
O          0.52328        3.69842        0.02623
O          2.55980        2.94542        0.24618
H         -1.99146       -0.43620        2.32684
H         -3.17067       -1.68619        1.90241
H         -3.67640       -0.26666        2.83262
H         -3.22496        1.21779        0.86146
H         -4.41894       -0.00840        0.47438
H         -2.67899       -1.40318       -0.61464
H         -2.94280        1.43935       -1.75169
H         -2.46973        0.00232       -2.67353
H         -4.09024        0.11037       -1.96316
H         -1.17528        2.05755       -0.24550
H          2.80640        0.54066        0.18552
H          0.11780       -3.04781       -0.26997
