25
/scratch/dz1061/gcn/chemGraph/data/deepchem/freesol/split/QM_opt/gjf/632.log	Energy: -2341544.7453706
C          1.78405       -1.50804       -0.23204
C          0.60301       -0.78945       -0.88954
C          0.60301        0.78945       -0.88954
C          1.78405        1.50804       -0.23204
O          2.98886        1.27670       -0.99590
S          3.96052        0.00000       -0.50893
O          3.97604       -0.00000        0.96634
O          2.98886       -1.27670       -0.99590
C         -0.77376        1.12924       -0.21925
C         -0.70663        0.67071        1.24019
C         -0.70663       -0.67071        1.24019
C         -0.77376       -1.12924       -0.21925
C         -1.69592        0.00000       -0.79574
Cl        -1.82394        0.00000       -2.58633
Cl        -3.35782        0.00000       -0.12999
Cl        -1.32377       -2.79882       -0.48720
Cl        -0.55500       -1.72432        2.58335
Cl        -0.55500        1.72432        2.58335
Cl        -1.32377        2.79882       -0.48720
H          1.94763       -1.21901        0.80990
H          1.62354       -2.58824       -0.26504
H          0.56144       -1.13152       -1.92619
H          0.56144        1.13152       -1.92619
H          1.94763        1.21901        0.80990
H          1.62354        2.58824       -0.26504
