20
/scratch/dz1061/gcn/chemGraph/data/deepchem/freesol/split/QM_opt/gjf/636.log	Energy: -148772.2489640
C          2.19355        0.03377       -0.00000
C          0.87859        0.82388       -0.00000
C         -0.43625       -0.00051        0.00000
C         -1.61799        0.98972        0.00000
C         -0.52899       -0.88492        1.25868
C         -0.52899       -0.88492       -1.25868
H          3.04848        0.71978        0.00000
H          2.28898       -0.60509        0.88499
H          2.28898       -0.60509       -0.88499
H          0.86591        1.48645       -0.87753
H          0.86591        1.48645        0.87752
H         -1.59356        1.63642       -0.88605
H         -2.57822        0.45928        0.00000
H         -1.59356        1.63642        0.88605
H         -1.48999       -1.41288        1.29215
H         -0.44831       -0.28278        2.17261
H          0.26205       -1.64270        1.28531
H          0.26205       -1.64270       -1.28531
H         -1.48999       -1.41288       -1.29215
H         -0.44831       -0.28278       -2.17261
