9
/scratch/dz1061/gcn/chemGraph/data/deepchem/freesol/split/QM_opt/gjf/64.log	Energy: -141951.7774731
C          0.60454        0.99031       -0.00004
C          1.13866       -0.27360        0.00002
N          0.14294       -1.22698        0.00001
C         -0.98362       -0.54858       -0.00003
N         -0.76331        0.80079        0.00004
H          1.04785        1.97459       -0.00006
H          2.18341       -0.55385        0.00004
H         -1.97958       -0.97131       -0.00005
H         -1.46652        1.52510        0.00007
