12
/scratch/dz1061/gcn/chemGraph/data/deepchem/freesol/split/QM_opt/gjf/68.log	Energy: -121952.8879622
C         -1.85441       -0.16867       -0.00000
C         -0.49266        0.50623        0.00000
O          0.50589       -0.49855        0.00000
C          1.81225        0.03137       -0.00000
H         -1.96878       -0.79983        0.88714
H         -1.96878       -0.79983       -0.88714
H         -2.65386        0.58054       -0.00000
H         -0.38017        1.15422        0.88726
H         -0.38017        1.15422       -0.88726
H          2.00420        0.64996        0.89260
H          2.50515       -0.81437       -0.00000
H          2.00420        0.64996       -0.89260
