20
/scratch/dz1061/gcn/chemGraph/data/deepchem/freesol/split/QM_opt/gjf/69.log	Energy: -554084.1374007
C         -0.10325        2.11942        0.96685
O         -0.44472        1.39924       -0.22070
C         -0.35500        0.00614       -0.23327
C          0.86415       -0.45035       -1.06395
Cl         2.44173       -0.06330       -0.27348
O         -0.36066       -0.44072        1.09375
C         -0.25111       -1.84768        1.29071
O         -1.42608       -0.51664       -0.97514
C         -2.72335       -0.07031       -0.57424
H          0.90978        1.88843        1.30641
H         -0.81092        1.92108        1.77754
H         -0.16146        3.17226        0.68027
H          0.84063       -1.52610       -1.23630
H          0.83766        0.07359       -2.01806
H         -0.95205       -2.39440        0.65042
H          0.77177       -2.19852        1.10637
H         -0.50154       -2.02527        2.33883
H         -3.43241       -0.64560       -1.17319
H         -2.89927       -0.26560        0.48979
H         -2.84874        0.99792       -0.77285
