34
/scratch/dz1061/gcn/chemGraph/data/deepchem/freesol/split/QM_opt/gjf/72.log	Energy: -1561621.3828190
C         -5.54473       -0.53119        0.83787
C         -4.03641       -0.38562        0.89519
O         -3.55067       -0.27664       -0.46998
P         -1.99184       -0.25360       -0.82012
O         -1.69650       -0.09646       -2.25608
O         -1.34577       -1.53860       -0.09500
C         -1.19587       -2.77619       -0.84514
C         -0.33502       -3.71387       -0.02133
O         -1.47234        0.94021        0.16847
C         -0.26947        1.60304       -0.08820
C         -0.35794        2.91811       -0.30201
Cl         1.01732        3.96129       -0.50883
C          0.97154        0.78965       -0.07153
C          1.65228        0.54366       -1.27267
C          2.80752       -0.23265       -1.31069
C          3.28962       -0.77653       -0.12143
C          2.64143       -0.55744        1.09323
C          1.48674        0.22295        1.10456
Cl         0.69913        0.50423        2.64468
Cl         4.74334       -1.75921       -0.14264
H         -5.94802       -0.60542        1.85392
H         -5.82829       -1.43180        0.28448
H         -5.99882        0.33451        0.34621
H         -3.56442       -1.25194        1.37044
H         -3.73805        0.51586        1.43942
H         -2.19116       -3.20009       -1.02319
H         -0.74018       -2.54604       -1.81213
H         -0.20545       -4.66204       -0.55485
H          0.65227       -3.27625        0.15490
H         -0.80028       -3.92233        0.94731
H         -1.31395        3.42529       -0.33221
H          1.24964        0.95935       -2.19024
H          3.32310       -0.41606       -2.24656
H          3.02884       -0.97788        2.01334
