21
/scratch/dz1061/gcn/chemGraph/data/deepchem/freesol/split/QM_opt/gjf/73.log	Energy: -195968.0600751
C          3.33245       -0.30141       -0.08978
C          1.99001        0.27605        0.36899
C          0.78425       -0.50725       -0.16385
C         -0.57096        0.09221        0.23758
C         -1.75612       -0.75975       -0.24035
C         -3.11529       -0.21737        0.21008
O         -0.69369        1.44896       -0.20895
H          4.17285        0.27750        0.31000
H          3.45589       -1.33978        0.24271
H          3.41545       -0.29448       -1.18394
H          1.95174        0.28811        1.46756
H          1.90083        1.32147        0.05143
H          0.83135       -1.54773        0.18884
H          0.83419       -0.55906       -1.26427
H         -0.61294        0.17216        1.33236
H         -1.62162       -1.78804        0.12234
H         -1.72281       -0.81937       -1.33992
H         -3.19856       -0.22555        1.30379
H         -3.24834        0.81630       -0.12303
H         -3.93699       -0.82020       -0.19231
H         -0.65763        1.43210       -1.17995
