23
/scratch/dz1061/gcn/chemGraph/data/deepchem/freesol/split/QM_opt/gjf/75.log	Energy: -441298.1693861
C         -0.33548        2.30519       -0.09448
N         -0.17432        0.87180        0.09530
C         -1.21940        0.21995        0.85469
C         -2.32837       -0.36790       -0.01005
F         -1.87766       -1.33646       -0.83350
F         -3.28604       -0.91166        0.77506
F         -2.91916        0.57301       -0.77970
C          1.11238        0.30522        0.05466
C          2.26630        1.11058        0.01236
C          3.53454        0.53200       -0.04199
C          3.69218       -0.85304       -0.04487
C          2.55145       -1.65771       -0.00903
C          1.27900       -1.09458        0.02882
H          0.21902        2.62953       -0.97947
H         -1.39130        2.52044       -0.26876
H          0.00703        2.89971        0.76960
H         -0.81183       -0.59347        1.46070
H         -1.70052        0.92652        1.54415
H          2.18236        2.19104        0.03981
H          4.40716        1.17990       -0.06988
H          4.68224       -1.29767       -0.08293
H          2.64720       -2.74039       -0.03064
H          0.40902       -1.74052       -0.00715
