16
/scratch/dz1061/gcn/chemGraph/data/deepchem/freesol/split/QM_opt/gjf/77.log	Energy: -147221.0705911
C          2.99887       -0.20347        0.15030
C          1.87936        0.44125       -0.18024
C          0.56006       -0.21109       -0.49099
C         -0.56006        0.21109        0.49099
C         -1.87936       -0.44125        0.18024
C         -2.99887        0.20347       -0.15030
H          3.03649       -1.28977        0.20877
H          3.92223        0.32575        0.37069
H          1.89051        1.53216       -0.22447
H          0.67291       -1.30309       -0.47370
H          0.24295        0.05698       -1.50927
H         -0.67291        1.30309        0.47370
H         -0.24295       -0.05698        1.50927
H         -1.89051       -1.53216        0.22447
H         -3.92223       -0.32575       -0.37069
H         -3.03649        1.28977       -0.20877
