26
/scratch/dz1061/gcn/chemGraph/data/deepchem/freesol/split/QM_opt/gjf/84.log	Energy: -291768.8562059
C         -5.12978       -0.47248       -0.00000
C         -3.85390        0.37533       -0.00000
C         -2.57027       -0.46473        0.00000
C         -1.29259        0.38297        0.00000
C         -0.01996       -0.46636        0.00000
C          1.25084        0.36217        0.00001
O          1.30627        1.57304       -0.00000
O          2.34488       -0.43535        0.00000
C          3.62118        0.24205       -0.00000
C          4.70356       -0.82146       -0.00000
H         -5.17616       -1.11947       -0.88479
H         -6.02745        0.15620       -0.00001
H         -5.17617       -1.11947        0.88478
H         -3.85273        1.03663       -0.87794
H         -3.85274        1.03663        0.87793
H         -2.57166       -1.12757       -0.87855
H         -2.57166       -1.12757        0.87856
H         -1.28264        1.04490       -0.87492
H         -1.28264        1.04490        0.87493
H          0.01281       -1.13202       -0.87322
H          0.01281       -1.13201        0.87323
H          3.68021        0.88768        0.88254
H          3.68020        0.88768       -0.88255
H          5.69142       -0.34764       -0.00001
H          4.62635       -1.45767       -0.88752
H          4.62636       -1.45766        0.88752
