14
/scratch/dz1061/gcn/chemGraph/data/deepchem/freesol/split/QM_opt/gjf/87.log	Energy: -250820.4346080
C         -0.69705        1.80375        0.00000
C          0.63884        1.41401        0.00000
C          0.94764        0.04240        0.00000
C         -0.06796       -0.92227        0.00000
C         -1.40333       -0.51176        0.00000
C         -1.71797        0.85242        0.00000
O         -2.35254       -1.49072       -0.00000
C          2.32025       -0.37807        0.00000
N          3.43427       -0.71252        0.00000
H         -0.95161        2.85951       -0.00000
H          1.43647        2.14845        0.00000
H          0.16585       -1.98088        0.00000
H         -2.75945        1.16815       -0.00000
H         -3.23343       -1.08475        0.00000
