29
/scratch/dz1061/gcn/chemGraph/data/deepchem/freesol/split/QM_opt/gjf/9.log	Energy: -293101.9137331
C         -2.10353       -1.25423        1.26523
C         -2.05225       -0.38178        0.03435
C         -1.14982       -0.50126       -0.95647
C         -0.03461       -1.50163       -1.10805
C          1.37992       -0.85914       -1.19792
C          1.90013       -0.33777        0.12750
C          1.85336        0.94889        0.51153
C          1.25509        2.10653       -0.24183
O         -0.02968        2.46607        0.27431
C          2.48375       -1.39077        1.04146
C         -3.14080        0.66649       -0.03367
H         -3.05710       -1.79829        1.31190
H         -2.05166       -0.64024        2.17427
H         -1.29586       -1.98780        1.31109
H         -1.23802        0.19655       -1.79249
H         -0.05006       -2.24449       -0.30419
H         -0.20082       -2.05990       -2.04131
H          2.07342       -1.62392       -1.57370
H          1.35585       -0.06784       -1.95462
H          2.22029        1.19825        1.50774
H          1.87693        2.99994       -0.11850
H          1.19939        1.89927       -1.32065
H         -0.55572        1.64804        0.25091
H          3.36385       -1.86382        0.58336
H          2.78732       -0.97024        2.00499
H          1.76622       -2.19935        1.23803
H         -3.05909        1.28570       -0.93226
H         -3.11062        1.33099        0.84069
H         -4.13425        0.19655       -0.03240
