10
/scratch/dz1061/gcn/chemGraph/data/deepchem/freesol/split/QM_opt/gjf/91.log	Energy:  -84815.9715145
C          0.02709       -0.22208       -1.21321
N          0.02709        0.58483       -0.00000
C          0.02709       -0.22208        1.21321
H         -0.79804       -0.95842       -1.27362
H          0.96908       -0.78080       -1.27626
H         -0.03121        0.43169       -2.08982
H         -0.79426        1.18620       -0.00000
H         -0.03121        0.43169        2.08982
H          0.96908       -0.78080        1.27626
H         -0.79804       -0.95842        1.27362
