13
/scratch/dz1061/gcn/chemGraph/data/deepchem/freesol/split/QM_opt/gjf/93.log	Energy: -481337.6133518
C          1.11718        1.22259        0.00000
C         -0.27441        1.21438        0.00000
C         -0.95935       -0.00182        0.00000
C         -0.26415       -1.20854        0.00000
C          1.13075       -1.19829       -0.00000
C          1.82557        0.01554        0.00000
O          3.19030        0.08868       -0.00000
Cl        -2.72041       -0.01054        0.00000
H          1.66895        2.15703        0.00000
H         -0.82691        2.14807        0.00000
H         -0.80434       -2.14931        0.00000
H          1.67621       -2.14015        0.00000
H          3.55719       -0.80904        0.00000
