24
/scratch/dz1061/gcn/chemGraph/data/deepchem/freesol/split/QM_opt/gjf/95.log	Energy: -338565.5997114
C         -3.56205       -0.29613        0.00000
C         -2.88355       -1.52909        0.00000
C         -1.50079       -1.56688        0.00000
C         -0.72898       -0.38125        0.00000
C         -1.42312        0.86598       -0.00000
C         -2.83731        0.87916       -0.00000
C         -0.67977        2.09362       -0.00000
C          0.67977        2.09362        0.00000
C          1.42312        0.86598        0.00000
C          0.72898       -0.38125       -0.00000
C          1.50079       -1.56688       -0.00000
C          2.88355       -1.52909       -0.00000
C          3.56205       -0.29613        0.00000
C          2.83731        0.87916        0.00000
H         -4.64830       -0.27100       -0.00000
H         -3.44731       -2.45809        0.00000
H         -1.00793       -2.53318        0.00000
H         -3.34776        1.83961       -0.00000
H         -1.23239        3.03020       -0.00000
H          1.23239        3.03020        0.00000
H          1.00793       -2.53318       -0.00000
H          3.44731       -2.45809       -0.00000
H          4.64830       -0.27100        0.00000
H          3.34776        1.83961        0.00000
